<?xml version="1.0"?>
<!-- generated on 2017-12-19 02:12:42.968813 by $Id: route2trips.py 25256 2017-07-19 06:38:15Z behrisch $ via randomTrips.py
  options: 
-->
<routes xmlns:xsi="http://www.w3.org/2001/XMLSchema-instance" xsi:noNamespaceSchemaLocation="http://sumo.dlr.de/xsd/routes_file.xsd">
    <vType id="bus" vClass="bus">
    </vType>
    <trip id="bus0" depart="0.00" departLane="best" from="343517461" to="-186736235#4" type="bus"/>
    <trip id="bus1" depart="5.74" departLane="best" from="-7934417" to="-43707627" type="bus"/>
    <trip id="bus2" depart="11.49" departLane="best" from="-186736159" to="-411913364#1" type="bus"/>
    <trip id="bus3" depart="17.23" departLane="best" from="343528767#0" to="256854467" type="bus"/>
    <trip id="bus4" depart="22.98" departLane="best" from="-45763754#1" to="278314967" type="bus"/>
    <trip id="bus5" depart="28.72" departLane="best" from="43707023" to="-117297986#1" type="bus"/>
    <trip id="bus8" depart="45.96" departLane="best" from="205274906" to="26598924#1" type="bus"/>
    <trip id="bus9" depart="51.70" departLane="best" from="45985481#0" to="275777470#0" type="bus"/>
    <trip id="bus10" depart="57.45" departLane="best" from="37554816#0" to="-23582606#0" type="bus"/>
    <trip id="bus11" depart="63.19" departLane="best" from="-45985481#2" to="-7976555" type="bus"/>
    <trip id="bus12" depart="68.94" departLane="best" from="-24283528#3" to="-44194781#0" type="bus"/>
    <trip id="bus13" depart="74.68" departLane="best" from="-25199500#3" to="-56725337#3" type="bus"/>
    <trip id="bus14" depart="80.43" departLane="best" from="343528767#0" to="315275163" type="bus"/>
    <trip id="bus15" depart="86.17" departLane="best" from="-343528767#2" to="186736159" type="bus"/>
    <trip id="bus16" depart="91.92" departLane="best" from="307657355" to="338683089#1" type="bus"/>
    <trip id="bus17" depart="97.66" departLane="best" from="44194781#1" to="38215231#1" type="bus"/>
    <trip id="bus19" depart="109.15" departLane="best" from="122905764#1" to="-56019866" type="bus"/>
    <trip id="bus20" depart="114.90" departLane="best" from="-439842578" to="7934417" type="bus"/>
    <trip id="bus21" depart="120.64" departLane="best" from="343547062#0" to="186736235#7" type="bus"/>
    <trip id="bus22" depart="126.39" departLane="best" from="56725337#3" to="23893754#3" type="bus"/>
    <trip id="bus23" depart="132.13" departLane="best" from="-7933104#1" to="-45985481#0" type="bus"/>
    <trip id="bus24" depart="137.88" departLane="best" from="31584766#0" to="55425343" type="bus"/>
    <trip id="bus25" depart="143.62" departLane="best" from="79816479#1" to="24283552#0" type="bus"/>
    <trip id="bus26" depart="149.37" departLane="best" from="-25199500#1" to="-23582606#0" type="bus"/>
    <trip id="bus27" depart="155.11" departLane="best" from="-27173072" to="31579378" type="bus"/>
    <trip id="bus28" depart="160.86" departLane="best" from="42835112" to="23287517" type="bus"/>
    <trip id="bus29" depart="166.60" departLane="best" from="-23893643#2" to="186736159" type="bus"/>
    <trip id="bus30" depart="172.34" departLane="best" from="-113280420" to="364789855" type="bus"/>
    <trip id="bus31" depart="178.09" departLane="best" from="372299409#0" to="25199500#3" type="bus"/>
    <trip id="bus32" depart="183.83" departLane="best" from="-7933104#1" to="31584504#2" type="bus"/>
    <trip id="bus33" depart="189.58" departLane="best" from="-27173072" to="23582606#4" type="bus"/>
    <trip id="bus34" depart="195.32" departLane="best" from="24283559#1" to="7936303#1" type="bus"/>
    <trip id="bus35" depart="201.07" departLane="best" from="56725337#1" to="45985481#1" type="bus"/>
    <trip id="bus36" depart="206.81" departLane="best" from="113272394#0" to="31584504#1" type="bus"/>
    <trip id="bus37" depart="212.56" departLane="best" from="31623244#0" to="-325146681#2" type="bus"/>
    <trip id="bus38" depart="218.30" departLane="best" from="411257679#1" to="25199500#3" type="bus"/>
    <trip id="bus39" depart="224.05" departLane="best" from="413528723#0" to="243065797" type="bus"/>
    <trip id="bus40" depart="229.79" departLane="best" from="-108297381" to="113280420" type="bus"/>
    <trip id="bus41" depart="235.54" departLane="best" from="464696418#0" to="43707065#0" type="bus"/>
    <trip id="bus42" depart="241.28" departLane="best" from="264129023" to="26598924#0" type="bus"/>
    <trip id="bus45" depart="258.52" departLane="best" from="-278314967" to="-439842578" type="bus"/>
    <trip id="bus46" depart="264.26" departLane="best" from="177921037" to="278314967" type="bus"/>
    <trip id="bus47" depart="270.01" departLane="best" from="-46233529" to="-43707627" type="bus"/>
    <trip id="bus48" depart="275.75" departLane="best" from="-23893849#1" to="31579388#1" type="bus"/>
    <trip id="bus49" depart="281.50" departLane="best" from="45763754#0" to="-25199500#1" type="bus"/>
    <trip id="bus50" depart="287.24" departLane="best" from="-55488299" to="31692661#1" type="bus"/>
    <trip id="bus51" depart="292.99" departLane="best" from="-44194781#2" to="-31579377" type="bus"/>
    <trip id="bus54" depart="310.22" departLane="best" from="-25199500#3" to="23582606#1" type="bus"/>
    <trip id="bus55" depart="315.97" departLane="best" from="7976556#2" to="-302113483#1" type="bus"/>
    <trip id="bus56" depart="321.71" departLane="best" from="-390044752" to="23893728#0" type="bus"/>
    <trip id="bus57" depart="327.46" departLane="best" from="-58064599#1" to="7932712#1" type="bus"/>
    <trip id="bus58" depart="333.20" departLane="best" from="306097794" to="-23582606#2" type="bus"/>
    <trip id="bus59" depart="338.94" departLane="best" from="7976495#0" to="7932712#2" type="bus"/>
    <trip id="bus62" depart="356.18" departLane="best" from="24283559#2" to="23287517" type="bus"/>
    <trip id="bus63" depart="361.92" departLane="best" from="7936613#0" to="79816479#0" type="bus"/>
    <trip id="bus64" depart="367.67" departLane="best" from="307657355" to="364789855" type="bus"/>
    <trip id="bus65" depart="373.41" departLane="best" from="-338025195#0" to="10511797#0" type="bus"/>
    <trip id="bus66" depart="379.16" departLane="best" from="302299800#0" to="372299412#1" type="bus"/>
    <trip id="bus67" depart="384.90" departLane="best" from="-23582606#3" to="278314967" type="bus"/>
    <trip id="bus68" depart="390.65" departLane="best" from="-338025195#1" to="7936346#0" type="bus"/>
    <trip id="bus69" depart="396.39" departLane="best" from="-24283528#3" to="-377882536#0" type="bus"/>
    <trip id="bus70" depart="402.14" departLane="best" from="31620416#1" to="334883453" type="bus"/>
    <trip id="bus71" depart="407.88" departLane="best" from="-55425343" to="-306097796" type="bus"/>
    <trip id="bus72" depart="413.63" departLane="best" from="522865607" to="-45985481#0" type="bus"/>
    <trip id="bus73" depart="419.37" departLane="best" from="23893810#0" to="278314967" type="bus"/>
    <trip id="bus75" depart="430.86" departLane="best" from="-55556740#1" to="186736235#7" type="bus"/>
    <trip id="bus76" depart="436.61" departLane="best" from="190629953#0" to="-338025195#1" type="bus"/>
    <trip id="bus77" depart="442.35" departLane="best" from="439842578" to="363472323" type="bus"/>
    <trip id="bus78" depart="448.10" departLane="best" from="31623244#0" to="7976586" type="bus"/>
    <trip id="bus79" depart="453.84" departLane="best" from="43707065#0" to="10511797#1" type="bus"/>
    <trip id="bus80" depart="459.59" departLane="best" from="363472323" to="7933944" type="bus"/>
    <trip id="bus81" depart="465.33" departLane="best" from="-315275163" to="-306097796" type="bus"/>
    <trip id="bus82" depart="471.08" departLane="best" from="-27173072" to="26598924#1" type="bus"/>
    <trip id="bus83" depart="476.82" departLane="best" from="-7934417" to="302299800#1" type="bus"/>
    <trip id="bus84" depart="482.57" departLane="best" from="377853589" to="-43056321#0" type="bus"/>
    <trip id="bus85" depart="488.31" departLane="best" from="26616666" to="56725337#0" type="bus"/>
    <trip id="bus86" depart="494.06" departLane="best" from="44194781#3" to="-302113483#0" type="bus"/>
    <trip id="bus87" depart="499.80" departLane="best" from="56019866" to="256854467" type="bus"/>
    <trip id="bus88" depart="505.54" departLane="best" from="44194781#0" to="278314967" type="bus"/>
    <trip id="bus89" depart="511.29" departLane="best" from="-31579388#1" to="-307657355" type="bus"/>
    <trip id="bus90" depart="517.03" departLane="best" from="117297986#1" to="55488299" type="bus"/>
    <trip id="bus92" depart="528.52" departLane="best" from="413528723#0" to="466395276#1" type="bus"/>
    <trip id="bus93" depart="534.27" departLane="best" from="23893728#0" to="31579378" type="bus"/>
    <trip id="bus94" depart="540.01" departLane="best" from="-334883453" to="7933104#0" type="bus"/>
    <trip id="bus95" depart="545.76" departLane="best" from="45985481#0" to="7976495#0" type="bus"/>
    <trip id="bus96" depart="551.50" departLane="best" from="-186736159" to="372299410#1" type="bus"/>
    <trip id="bus97" depart="557.25" departLane="best" from="177921033" to="7933104#1" type="bus"/>
    <trip id="bus99" depart="568.74" departLane="best" from="43707023" to="-56019866" type="bus"/>
    <trip id="bus100" depart="574.48" departLane="best" from="42835112" to="-302299800#0" type="bus"/>
    <trip id="bus101" depart="580.23" departLane="best" from="-45763754#1" to="413528724" type="bus"/>
    <trip id="bus102" depart="585.97" departLane="best" from="24283666" to="10511797#2" type="bus"/>
    <trip id="bus103" depart="591.72" departLane="best" from="-186736159" to="-390044752" type="bus"/>
    <trip id="bus104" depart="597.46" departLane="best" from="343517468#1" to="186736235#7" type="bus"/>
    <trip id="bus105" depart="603.21" departLane="best" from="7976556#0" to="25199500#3" type="bus"/>
    <trip id="bus106" depart="608.95" departLane="best" from="7976448#1" to="-56019866" type="bus"/>
    <trip id="bus107" depart="614.70" departLane="best" from="-27173072" to="23582606#4" type="bus"/>
    <trip id="bus108" depart="620.44" departLane="best" from="377882536#1" to="108487694" type="bus"/>
    <trip id="bus109" depart="626.19" departLane="best" from="31622095" to="24283552#2" type="bus"/>
    <trip id="bus110" depart="631.93" departLane="best" from="-69033973" to="363554496" type="bus"/>
    <trip id="bus111" depart="637.68" departLane="best" from="363472323" to="113838783#1" type="bus"/>
    <trip id="bus112" depart="643.42" departLane="best" from="122905764#0" to="44356586#0" type="bus"/>
    <trip id="bus113" depart="649.17" departLane="best" from="377879487#0" to="10511797#2" type="bus"/>
    <trip id="bus114" depart="654.91" departLane="best" from="118721964#0" to="190629953#0" type="bus"/>
    <trip id="bus115" depart="660.66" departLane="best" from="-302299788#0" to="23287517" type="bus"/>
    <trip id="bus116" depart="666.40" departLane="best" from="7933408#2" to="338025192#1" type="bus"/>
    <trip id="bus117" depart="672.14" departLane="best" from="56019866" to="315275163" type="bus"/>
    <trip id="bus118" depart="677.89" departLane="best" from="113272394#1" to="264129023" type="bus"/>
    <trip id="bus119" depart="683.63" departLane="best" from="-108297381" to="-7976448#1" type="bus"/>
    <trip id="bus120" depart="689.38" departLane="best" from="256854467" to="55488308" type="bus"/>
    <trip id="bus121" depart="695.12" departLane="best" from="42956774" to="-343528767#0" type="bus"/>
    <trip id="bus122" depart="700.87" departLane="best" from="338025195#0" to="117297986#1" type="bus"/>
    <trip id="bus123" depart="706.61" departLane="best" from="37146434#0" to="-439842578" type="bus"/>
    <trip id="bus124" depart="712.36" departLane="best" from="-407873338" to="-186736235#3" type="bus"/>
    <trip id="bus126" depart="723.85" departLane="best" from="23893754#2" to="31579388#1" type="bus"/>
    <trip id="bus127" depart="729.59" departLane="best" from="-407873338" to="359110260#1" type="bus"/>
    <trip id="bus128" depart="735.34" departLane="best" from="26616666" to="-45985481#0" type="bus"/>
    <trip id="bus129" depart="741.08" departLane="best" from="343547062#0" to="-117297986#1" type="bus"/>
    <trip id="bus130" depart="746.83" departLane="best" from="-27173072" to="23287517" type="bus"/>
    <trip id="bus131" depart="752.57" departLane="best" from="-364789855" to="7936314#0" type="bus"/>
    <trip id="bus132" depart="758.32" departLane="best" from="291193537" to="-23582606#2" type="bus"/>
    <trip id="bus133" depart="764.06" departLane="best" from="-58064599#1" to="44356586#1" type="bus"/>
    <trip id="bus134" depart="769.81" departLane="best" from="24283574#0" to="411257679#2" type="bus"/>
    <trip id="bus135" depart="775.55" departLane="best" from="363554495" to="7976593#1" type="bus"/>
    <trip id="bus136" depart="781.30" departLane="best" from="31620429" to="7934417" type="bus"/>
    <trip id="bus137" depart="787.04" departLane="best" from="377879487#0" to="24283548#2" type="bus"/>
    <trip id="bus138" depart="792.79" departLane="best" from="264129023" to="-55425343" type="bus"/>
    <trip id="bus139" depart="798.53" departLane="best" from="411257679#3" to="24283574#1" type="bus"/>
    <trip id="bus140" depart="804.28" departLane="best" from="334883453" to="-56725337#1" type="bus"/>
    <trip id="bus141" depart="810.02" departLane="best" from="-24283528#2" to="-7976448#0" type="bus"/>
    <trip id="bus142" depart="815.77" departLane="best" from="-7934417" to="113280420" type="bus"/>
    <trip id="bus143" depart="821.51" departLane="best" from="-497860197#0" to="343528767#2" type="bus"/>
    <trip id="bus144" depart="827.26" departLane="best" from="37554816#1" to="-24283528#1" type="bus"/>
    <trip id="bus145" depart="833.00" departLane="best" from="23893728#0" to="25199500#3" type="bus"/>
    <trip id="bus146" depart="838.74" departLane="best" from="31584766#0" to="343547062#0" type="bus"/>
    <trip id="bus147" depart="844.49" departLane="best" from="210597392#0" to="-117297986#1" type="bus"/>
    <trip id="bus148" depart="850.23" departLane="best" from="44356590" to="7936303#1" type="bus"/>
    <trip id="bus149" depart="855.98" departLane="best" from="-45763754#1" to="-43707627" type="bus"/>
    <trip id="bus151" depart="867.47" departLane="best" from="23893687#3" to="-343528767#0" type="bus"/>
    <trip id="bus152" depart="873.21" departLane="best" from="25199500#0" to="-307657355" type="bus"/>
    <trip id="bus153" depart="878.96" departLane="best" from="23582606#4" to="27173072" type="bus"/>
    <trip id="bus155" depart="890.45" departLane="best" from="-315275163" to="23893810#0" type="bus"/>
    <trip id="bus156" depart="896.19" departLane="best" from="-23287517" to="186736159" type="bus"/>
    <trip id="bus157" depart="901.94" departLane="best" from="-439842578" to="113280420" type="bus"/>
    <trip id="bus158" depart="907.68" departLane="best" from="407497545#1" to="186736159" type="bus"/>
    <trip id="bus159" depart="913.43" departLane="best" from="407497545#0" to="43707065#0" type="bus"/>
    <trip id="bus160" depart="919.17" departLane="best" from="-69033973" to="-291193537" type="bus"/>
    <trip id="bus161" depart="924.92" departLane="best" from="-177921034" to="25199500#3" type="bus"/>
    <trip id="bus162" depart="930.66" departLane="best" from="343528767#0" to="389686394#1" type="bus"/>
    <trip id="bus163" depart="936.41" departLane="best" from="343528767#1" to="37590015" type="bus"/>
    <trip id="bus164" depart="942.15" departLane="best" from="7936303#2" to="-411914874" type="bus"/>
    <trip id="bus165" depart="947.90" departLane="best" from="-186736159" to="-325146681#2" type="bus"/>
    <trip id="bus166" depart="953.64" departLane="best" from="-302113483#1" to="31692661#1" type="bus"/>
    <trip id="bus167" depart="959.39" departLane="best" from="37554816#0" to="377882528" type="bus"/>
    <trip id="bus168" depart="965.13" departLane="best" from="404917413" to="-306097796" type="bus"/>
    <trip id="bus169" depart="970.88" departLane="best" from="43707072" to="7936613#0" type="bus"/>
    <trip id="bus170" depart="976.62" departLane="best" from="-27173072" to="-186736235#4" type="bus"/>
    <trip id="bus171" depart="982.37" departLane="best" from="7936613#0" to="186736235#7" type="bus"/>
    <trip id="bus172" depart="988.11" departLane="best" from="377851569#0" to="-266610220" type="bus"/>
    <trip id="bus173" depart="993.86" departLane="best" from="372299411#1" to="31579378" type="bus"/>
</routes>
