<?xml version="1.0"?>
<!-- generated on 2017-12-19 02:12:44.159462 by $Id: route2trips.py 25256 2017-07-19 06:38:15Z behrisch $ via randomTrips.py
  options: 
-->
<routes xmlns:xsi="http://www.w3.org/2001/XMLSchema-instance" xsi:noNamespaceSchemaLocation="http://sumo.dlr.de/xsd/routes_file.xsd">
    <vType id="truck" speedFactor="normc(1.00,0.10,0.20,2.00)" vClass="truck">
    </vType>
    <trip id="truck0" depart="0.00" departLane="best" from="343528767#0" to="-186736235#5" type="truck"/>
    <trip id="truck1" depart="5.81" departLane="best" from="108297381" to="-45985481#0" type="truck"/>
    <trip id="truck3" depart="17.44" departLane="best" from="55425343" to="-302113483#0" type="truck"/>
    <trip id="truck5" depart="29.07" departLane="best" from="-55488299" to="24283559#2" type="truck"/>
    <trip id="truck6" depart="34.89" departLane="best" from="-186736235#2" to="-43707627" type="truck"/>
    <trip id="truck7" depart="40.70" departLane="best" from="43707023" to="363520361" type="truck"/>
    <trip id="truck8" depart="46.52" departLane="best" from="186736235#0" to="-343528767#0" type="truck"/>
    <trip id="truck9" depart="52.33" departLane="best" from="7936613#0" to="13347875#2" type="truck"/>
    <trip id="truck10" depart="58.15" departLane="best" from="-25199500#3" to="-302299800#0" type="truck"/>
    <trip id="truck12" depart="69.77" departLane="best" from="43707055#0" to="372299410#1" type="truck"/>
    <trip id="truck13" depart="75.59" departLane="best" from="23582606#4" to="27173072" type="truck"/>
    <trip id="truck14" depart="81.40" departLane="best" from="439842578" to="31579388#1" type="truck"/>
    <trip id="truck15" depart="87.22" departLane="best" from="37590015" to="-23893643#1" type="truck"/>
    <trip id="truck16" depart="93.03" departLane="best" from="-58064599#0" to="10511797#2" type="truck"/>
    <trip id="truck17" depart="98.85" departLane="best" from="-27173072" to="10511797#0" type="truck"/>
    <trip id="truck18" depart="104.66" departLane="best" from="343528767#0" to="186736159" type="truck"/>
    <trip id="truck19" depart="110.48" departLane="best" from="231374322#1" to="-44194781#0" type="truck"/>
    <trip id="truck20" depart="116.29" departLane="best" from="-38215485#0" to="372299410#0" type="truck"/>
    <trip id="truck21" depart="122.11" departLane="best" from="-364789855" to="186736235#7" type="truck"/>
    <trip id="truck24" depart="139.55" departLane="best" from="177921034" to="-7976448#1" type="truck"/>
    <trip id="truck25" depart="145.36" departLane="best" from="-497860197#0" to="7934417" type="truck"/>
    <trip id="truck26" depart="151.18" departLane="best" from="31579388#0" to="-58064599#1" type="truck"/>
    <trip id="truck27" depart="156.99" departLane="best" from="31620416#1" to="55488299" type="truck"/>
    <trip id="truck28" depart="162.81" departLane="best" from="23893754#2" to="-45763754#0" type="truck"/>
    <trip id="truck29" depart="168.62" departLane="best" from="-25199500#3" to="-23893643#2" type="truck"/>
    <trip id="truck30" depart="174.44" departLane="best" from="-278314967" to="31584504#0" type="truck"/>
    <trip id="truck32" depart="186.07" departLane="best" from="-23893849#1" to="186736235#7" type="truck"/>
    <trip id="truck33" depart="191.88" departLane="best" from="79816479#0" to="25199500#3" type="truck"/>
    <trip id="truck34" depart="197.70" departLane="best" from="-113280420" to="37196673#0" type="truck"/>
    <trip id="truck35" depart="203.51" departLane="best" from="372299411#1" to="26598858#1" type="truck"/>
    <trip id="truck37" depart="215.14" departLane="best" from="-278314967" to="23893728#0" type="truck"/>
    <trip id="truck38" depart="220.95" departLane="best" from="464696418#0" to="-58064599#1" type="truck"/>
    <trip id="truck40" depart="232.58" departLane="best" from="31692369#1" to="-343528767#0" type="truck"/>
    <trip id="truck41" depart="238.40" departLane="best" from="-108297381" to="122905764#0" type="truck"/>
    <trip id="truck42" depart="244.21" departLane="best" from="-186736159" to="7933104#1" type="truck"/>
    <trip id="truck43" depart="250.03" departLane="best" from="13347875#2" to="-25199500#0" type="truck"/>
    <trip id="truck44" depart="255.84" departLane="best" from="466395276#0" to="7934417" type="truck"/>
    <trip id="truck45" depart="261.66" departLane="best" from="-25199500#3" to="24283528#4" type="truck"/>
    <trip id="truck46" depart="267.47" departLane="best" from="-24283528#3" to="377882528" type="truck"/>
    <trip id="truck47" depart="273.28" departLane="best" from="411911880" to="-31579388#0" type="truck"/>
    <trip id="truck48" depart="279.10" departLane="best" from="24283528#2" to="-44194781#0" type="truck"/>
    <trip id="truck49" depart="284.91" departLane="best" from="306097794" to="372299410#1" type="truck"/>
    <trip id="truck50" depart="290.73" departLane="best" from="-45763754#1" to="113838783#0" type="truck"/>
    <trip id="truck51" depart="296.54" departLane="best" from="79816479#0" to="31622052" type="truck"/>
    <trip id="truck52" depart="302.36" departLane="best" from="24283559#0" to="243065797" type="truck"/>
    <trip id="truck53" depart="308.17" departLane="best" from="-315275163" to="-45985481#0" type="truck"/>
    <trip id="truck54" depart="313.99" departLane="best" from="-24283528#4" to="31584504#2" type="truck"/>
    <trip id="truck55" depart="319.80" departLane="best" from="-69033973" to="338025192#1" type="truck"/>
    <trip id="truck56" depart="325.62" departLane="best" from="-525510189" to="-31623244#0" type="truck"/>
    <trip id="truck57" depart="331.43" departLane="best" from="7933408#0" to="278314967" type="truck"/>
    <trip id="truck58" depart="337.24" departLane="best" from="389686394#1" to="338025195#1" type="truck"/>
    <trip id="truck59" depart="343.06" departLane="best" from="23893754#4" to="171984639#1" type="truck"/>
    <trip id="truck60" depart="348.87" departLane="best" from="45985481#0" to="-56019866" type="truck"/>
    <trip id="truck61" depart="354.69" departLane="best" from="24283528#2" to="10511797#0" type="truck"/>
    <trip id="truck62" depart="360.50" departLane="best" from="24283574#0" to="45763754#1" type="truck"/>
    <trip id="truck63" depart="366.32" departLane="best" from="307657355" to="-24283528#0" type="truck"/>
    <trip id="truck64" depart="372.13" departLane="best" from="79816479#2" to="439842578" type="truck"/>
    <trip id="truck65" depart="377.95" departLane="best" from="7976495#0" to="7932712#3" type="truck"/>
    <trip id="truck66" depart="383.76" departLane="best" from="44356590" to="-372299410#0" type="truck"/>
    <trip id="truck67" depart="389.58" departLane="best" from="27173012" to="-44194781#1" type="truck"/>
    <trip id="truck68" depart="395.39" departLane="best" from="23893754#3" to="-25199500#0" type="truck"/>
    <trip id="truck69" depart="401.20" departLane="best" from="25199500#0" to="23893643#1" type="truck"/>
    <trip id="truck70" depart="407.02" departLane="best" from="7936613#0" to="79816479#0" type="truck"/>
    <trip id="truck71" depart="412.83" departLane="best" from="306097794" to="37590015" type="truck"/>
    <trip id="truck72" depart="418.65" departLane="best" from="291193537" to="44356591#1" type="truck"/>
    <trip id="truck73" depart="424.46" departLane="best" from="-364789855" to="7936457" type="truck"/>
    <trip id="truck74" depart="430.28" departLane="best" from="-25199500#0" to="-43056321#0" type="truck"/>
    <trip id="truck75" depart="436.09" departLane="best" from="-69033973" to="-31579377" type="truck"/>
    <trip id="truck76" depart="441.91" departLane="best" from="52698705#0" to="-56019866" type="truck"/>
    <trip id="truck77" depart="447.72" departLane="best" from="31622052" to="31579388#1" type="truck"/>
    <trip id="truck79" depart="459.35" departLane="best" from="-45763754#1" to="37146434#0" type="truck"/>
    <trip id="truck80" depart="465.16" departLane="best" from="-69033973" to="190629953#1" type="truck"/>
    <trip id="truck81" depart="470.98" departLane="best" from="37196673#1" to="113272394#1" type="truck"/>
    <trip id="truck82" depart="476.79" departLane="best" from="-24283528#4" to="-44194781#0" type="truck"/>
    <trip id="truck83" depart="482.61" departLane="best" from="44194781#0" to="363818322" type="truck"/>
    <trip id="truck84" depart="488.42" departLane="best" from="43707293" to="113272394#1" type="truck"/>
    <trip id="truck85" depart="494.24" departLane="best" from="37146431" to="7933944" type="truck"/>
    <trip id="truck86" depart="500.05" departLane="best" from="-31579388#1" to="-307657355" type="truck"/>
    <trip id="truck87" depart="505.87" departLane="best" from="-278314967" to="27173072" type="truck"/>
    <trip id="truck89" depart="517.50" departLane="best" from="377882530" to="-439842578" type="truck"/>
    <trip id="truck90" depart="523.31" departLane="best" from="343528767#0" to="-7933104#0" type="truck"/>
    <trip id="truck92" depart="534.94" departLane="best" from="24283528#3" to="10508024#3" type="truck"/>
    <trip id="truck93" depart="540.75" departLane="best" from="-113280420" to="38215485#0" type="truck"/>
    <trip id="truck94" depart="546.57" departLane="best" from="343528767#0" to="-58064599#1" type="truck"/>
    <trip id="truck95" depart="552.38" departLane="best" from="404917413" to="27173012" type="truck"/>
    <trip id="truck96" depart="558.20" departLane="best" from="56019866" to="26616191#0" type="truck"/>
    <trip id="truck97" depart="564.01" departLane="best" from="44194781#0" to="299836710" type="truck"/>
    <trip id="truck98" depart="569.83" departLane="best" from="13347875#2" to="55488308" type="truck"/>
    <trip id="truck100" depart="581.46" departLane="best" from="56019866" to="-44194781#0" type="truck"/>
    <trip id="truck101" depart="587.27" departLane="best" from="-7933104#1" to="-306097796" type="truck"/>
    <trip id="truck102" depart="593.09" departLane="best" from="413528724" to="497860197#0" type="truck"/>
    <trip id="truck103" depart="598.90" departLane="best" from="23893810#1" to="31579388#1" type="truck"/>
    <trip id="truck104" depart="604.71" departLane="best" from="-363255022" to="7933104#1" type="truck"/>
    <trip id="truck105" depart="610.53" departLane="best" from="45985481#0" to="7976495#0" type="truck"/>
    <trip id="truck106" depart="616.34" departLane="best" from="43707055#2" to="466395276#1" type="truck"/>
    <trip id="truck107" depart="622.16" departLane="best" from="-186736159" to="372299411#3" type="truck"/>
    <trip id="truck109" depart="633.79" departLane="best" from="42835112" to="-306097796" type="truck"/>
    <trip id="truck110" depart="639.60" departLane="best" from="46331380#0" to="45763754#1" type="truck"/>
    <trip id="truck111" depart="645.42" departLane="best" from="256854467" to="113280420" type="truck"/>
    <trip id="truck112" depart="651.23" departLane="best" from="-186736159" to="-43707293" type="truck"/>
    <trip id="truck113" depart="657.05" departLane="best" from="177921037" to="45763754#1" type="truck"/>
    <trip id="truck114" depart="662.86" departLane="best" from="7976486#1" to="10511797#0" type="truck"/>
    <trip id="truck115" depart="668.67" departLane="best" from="343528767#0" to="231374322#0" type="truck"/>
    <trip id="truck116" depart="674.49" departLane="best" from="7976556#0" to="26598858#1" type="truck"/>
    <trip id="truck117" depart="680.30" departLane="best" from="7976495#1" to="-404917414" type="truck"/>
    <trip id="truck118" depart="686.12" departLane="best" from="-278314967" to="23893728#0" type="truck"/>
    <trip id="truck119" depart="691.93" departLane="best" from="389686394#1" to="117297985#0" type="truck"/>
    <trip id="truck120" depart="697.75" departLane="best" from="23893687#0" to="278314967" type="truck"/>
    <trip id="truck121" depart="703.56" departLane="best" from="-7934417" to="364789855" type="truck"/>
    <trip id="truck122" depart="709.38" departLane="best" from="306097794" to="37190757" type="truck"/>
    <trip id="truck123" depart="715.19" departLane="best" from="404917413" to="338025195#0" type="truck"/>
    <trip id="truck124" depart="721.01" departLane="best" from="177921033" to="44356590" type="truck"/>
    <trip id="truck125" depart="726.82" departLane="best" from="171984639#0" to="23287517" type="truck"/>
    <trip id="truck126" depart="732.63" departLane="best" from="7933774#0" to="338683089#1" type="truck"/>
    <trip id="truck127" depart="738.45" departLane="best" from="56019866" to="31579378" type="truck"/>
    <trip id="truck128" depart="744.26" departLane="best" from="122905764#3" to="26616191#1" type="truck"/>
    <trip id="truck129" depart="750.08" departLane="best" from="-108297381" to="10511797#2" type="truck"/>
    <trip id="truck130" depart="755.89" departLane="best" from="363472323" to="23893849#1" type="truck"/>
    <trip id="truck131" depart="761.71" departLane="best" from="24283574#0" to="-44194781#1" type="truck"/>
    <trip id="truck132" depart="767.52" departLane="best" from="343517468#1" to="13347875#2" type="truck"/>
    <trip id="truck134" depart="779.15" departLane="best" from="37196673#1" to="-45985481#0" type="truck"/>
    <trip id="truck135" depart="784.97" departLane="best" from="-7933104#1" to="24283528#2" type="truck"/>
    <trip id="truck136" depart="790.78" departLane="best" from="44356590" to="-291193537" type="truck"/>
    <trip id="truck137" depart="796.59" departLane="best" from="-44194781#2" to="363472323" type="truck"/>
    <trip id="truck138" depart="802.41" departLane="best" from="286078255" to="-56019866" type="truck"/>
    <trip id="truck139" depart="808.22" departLane="best" from="407497545#0" to="38215231#1" type="truck"/>
    <trip id="truck140" depart="814.04" departLane="best" from="-278314967" to="23893643#2" type="truck"/>
    <trip id="truck141" depart="819.85" departLane="best" from="302113483#0" to="-24283528#0" type="truck"/>
    <trip id="truck142" depart="825.67" departLane="best" from="-7933104#1" to="44356590" type="truck"/>
    <trip id="truck143" depart="831.48" departLane="best" from="31622095" to="7936303#0" type="truck"/>
    <trip id="truck144" depart="837.30" departLane="best" from="52739335#0" to="31579378" type="truck"/>
    <trip id="truck145" depart="843.11" departLane="best" from="377882536#0" to="24283559#2" type="truck"/>
    <trip id="truck146" depart="848.93" departLane="best" from="44194781#0" to="26616191#1" type="truck"/>
    <trip id="truck147" depart="854.74" departLane="best" from="26616666" to="-56725337#3" type="truck"/>
    <trip id="truck149" depart="866.37" departLane="best" from="-24283528#4" to="10511797#2" type="truck"/>
    <trip id="truck151" depart="878.00" departLane="best" from="306097794" to="-334883453" type="truck"/>
    <trip id="truck152" depart="883.81" departLane="best" from="-69033973" to="363255022" type="truck"/>
    <trip id="truck153" depart="889.63" departLane="best" from="23893983" to="-44194781#0" type="truck"/>
    <trip id="truck154" depart="895.44" departLane="best" from="31620416#1" to="363472323" type="truck"/>
    <trip id="truck155" depart="901.26" departLane="best" from="23893643#0" to="-117297986#1" type="truck"/>
    <trip id="truck156" depart="907.07" departLane="best" from="186822215#0" to="377851569#1" type="truck"/>
    <trip id="truck157" depart="912.89" departLane="best" from="24283528#0" to="37590015" type="truck"/>
    <trip id="truck158" depart="918.70" departLane="best" from="307657355" to="315275163" type="truck"/>
    <trip id="truck160" depart="930.33" departLane="best" from="177922838#2" to="343517461" type="truck"/>
    <trip id="truck161" depart="936.14" departLane="best" from="26598953" to="-31579388#0" type="truck"/>
    <trip id="truck163" depart="947.77" departLane="best" from="23893728#1" to="275777271#1" type="truck"/>
    <trip id="truck165" depart="959.40" departLane="best" from="-31579388#1" to="23893849#1" type="truck"/>
    <trip id="truck166" depart="965.22" departLane="best" from="-23893643#0" to="186736235#7" type="truck"/>
    <trip id="truck167" depart="971.03" departLane="best" from="-497860197#0" to="122905764#2" type="truck"/>
    <trip id="truck168" depart="976.85" departLane="best" from="411908606" to="186736235#7" type="truck"/>
    <trip id="truck169" depart="982.66" departLane="best" from="407497545#0" to="43707293" type="truck"/>
    <trip id="truck170" depart="988.48" departLane="best" from="-7934417" to="-302113483#0" type="truck"/>
    <trip id="truck171" depart="994.29" departLane="best" from="-186736159" to="26598924#0" type="truck"/>
</routes>
