<?xml version="1.0"?>
<!-- generated on 2017-12-19 02:12:43.609666 by $Id: route2trips.py 25256 2017-07-19 06:38:15Z behrisch $ via randomTrips.py
  options: 
-->
<routes xmlns:xsi="http://www.w3.org/2001/XMLSchema-instance" xsi:noNamespaceSchemaLocation="http://sumo.dlr.de/xsd/routes_file.xsd">
    <vType id="passenger" speedFactor="normc(1.00,0.10,0.20,2.00)" vClass="passenger">
    </vType>
    <trip id="veh0" depart="0.00" departLane="best" from="343528767#0" to="-186736235#5" type="passenger"/>
    <trip id="veh1" depart="1.16" departLane="best" from="108297381" to="-45985481#0" type="passenger"/>
    <trip id="veh3" depart="3.49" departLane="best" from="55425343" to="-302113483#0" type="passenger"/>
    <trip id="veh5" depart="5.81" departLane="best" from="-55488299" to="24283559#2" type="passenger"/>
    <trip id="veh6" depart="6.98" departLane="best" from="-186736235#2" to="-43707627" type="passenger"/>
    <trip id="veh7" depart="8.14" departLane="best" from="359428795" to="26616191#0" type="passenger"/>
    <trip id="veh8" depart="9.30" departLane="best" from="-55556740#1" to="302113472" type="passenger"/>
    <trip id="veh9" depart="10.47" departLane="best" from="43707055#1" to="-117297986#1" type="passenger"/>
    <trip id="veh10" depart="11.63" departLane="best" from="43707023" to="363520361" type="passenger"/>
    <trip id="veh11" depart="12.79" departLane="best" from="186736235#0" to="-343528767#0" type="passenger"/>
    <trip id="veh12" depart="13.95" departLane="best" from="7936613#0" to="13347875#2" type="passenger"/>
    <trip id="veh13" depart="15.12" departLane="best" from="-25199500#3" to="-302299800#0" type="passenger"/>
    <trip id="veh15" depart="17.44" departLane="best" from="43707055#0" to="372299410#1" type="passenger"/>
    <trip id="veh16" depart="18.61" departLane="best" from="306097794" to="7976486#0" type="passenger"/>
    <trip id="veh17" depart="19.77" departLane="best" from="23582606#4" to="27173072" type="passenger"/>
    <trip id="veh18" depart="20.93" departLane="best" from="439842578" to="31579388#1" type="passenger"/>
    <trip id="veh19" depart="22.10" departLane="best" from="45985481#0" to="278314967" type="passenger"/>
    <trip id="veh20" depart="23.26" departLane="best" from="37590015" to="-23893643#1" type="passenger"/>
    <trip id="veh21" depart="24.42" departLane="best" from="-58064599#0" to="10511797#2" type="passenger"/>
    <trip id="veh22" depart="25.58" departLane="best" from="-25199500#0" to="-46233529" type="passenger"/>
    <trip id="veh23" depart="26.75" departLane="best" from="-27173072" to="10511797#0" type="passenger"/>
    <trip id="veh24" depart="27.91" departLane="best" from="343528767#0" to="186736159" type="passenger"/>
    <trip id="veh25" depart="29.07" departLane="best" from="231374322#1" to="-44194781#0" type="passenger"/>
    <trip id="veh26" depart="30.24" departLane="best" from="-38215485#0" to="372299410#0" type="passenger"/>
    <trip id="veh27" depart="31.40" departLane="best" from="-364789855" to="186736235#7" type="passenger"/>
    <trip id="veh31" depart="36.05" departLane="best" from="177921034" to="-7976448#1" type="passenger"/>
    <trip id="veh32" depart="37.21" departLane="best" from="-497860197#0" to="7934417" type="passenger"/>
    <trip id="veh33" depart="38.38" departLane="best" from="464696418#0" to="117297985#0" type="passenger"/>
    <trip id="veh34" depart="39.54" departLane="best" from="58064599#0" to="23893849#1" type="passenger"/>
    <trip id="veh35" depart="40.70" departLane="best" from="10508024#1" to="-56019866" type="passenger"/>
    <trip id="veh36" depart="41.86" departLane="best" from="31579388#0" to="-58064599#1" type="passenger"/>
    <trip id="veh37" depart="43.03" departLane="best" from="31620416#1" to="55488299" type="passenger"/>
    <trip id="veh38" depart="44.19" departLane="best" from="23893754#2" to="-45763754#0" type="passenger"/>
    <trip id="veh39" depart="45.35" departLane="best" from="-25199500#3" to="-23893643#2" type="passenger"/>
    <trip id="veh40" depart="46.52" departLane="best" from="-278314967" to="31584504#0" type="passenger"/>
    <trip id="veh42" depart="48.84" departLane="best" from="-23893849#1" to="186736235#7" type="passenger"/>
    <trip id="veh43" depart="50.01" departLane="best" from="79816479#0" to="25199500#3" type="passenger"/>
    <trip id="veh44" depart="51.17" departLane="best" from="-113280420" to="37196673#0" type="passenger"/>
    <trip id="veh45" depart="52.33" departLane="best" from="372299411#1" to="26598858#1" type="passenger"/>
    <trip id="veh47" depart="54.66" departLane="best" from="-278314967" to="23893728#0" type="passenger"/>
    <trip id="veh48" depart="55.82" departLane="best" from="464696418#0" to="-58064599#1" type="passenger"/>
    <trip id="veh49" depart="56.98" departLane="best" from="56725337#3" to="46240381#0" type="passenger"/>
    <trip id="veh51" depart="59.31" departLane="best" from="31692369#1" to="-343528767#0" type="passenger"/>
    <trip id="veh52" depart="60.47" departLane="best" from="411909327#0" to="26598924#0" type="passenger"/>
    <trip id="veh53" depart="61.63" departLane="best" from="-108297381" to="122905764#0" type="passenger"/>
    <trip id="veh54" depart="62.80" departLane="best" from="-186736159" to="7933104#1" type="passenger"/>
    <trip id="veh55" depart="63.96" departLane="best" from="466395276#1" to="43707293" type="passenger"/>
    <trip id="veh56" depart="65.12" departLane="best" from="13347875#2" to="-25199500#0" type="passenger"/>
    <trip id="veh57" depart="66.29" departLane="best" from="466395276#0" to="7934417" type="passenger"/>
    <trip id="veh58" depart="67.45" departLane="best" from="-25199500#3" to="24283528#4" type="passenger"/>
    <trip id="veh59" depart="68.61" departLane="best" from="-24283528#3" to="377882528" type="passenger"/>
    <trip id="veh60" depart="69.77" departLane="best" from="411911880" to="-31579388#0" type="passenger"/>
    <trip id="veh61" depart="70.94" departLane="best" from="26616666" to="266610215" type="passenger"/>
    <trip id="veh62" depart="72.10" departLane="best" from="10508024#1" to="46240381#1" type="passenger"/>
    <trip id="veh63" depart="73.26" departLane="best" from="24283528#2" to="-44194781#0" type="passenger"/>
    <trip id="veh64" depart="74.43" departLane="best" from="306097794" to="372299410#1" type="passenger"/>
    <trip id="veh65" depart="75.59" departLane="best" from="-45763754#1" to="113838783#0" type="passenger"/>
    <trip id="veh66" depart="76.75" departLane="best" from="79816479#0" to="31622052" type="passenger"/>
    <trip id="veh67" depart="77.92" departLane="best" from="24283559#0" to="243065797" type="passenger"/>
    <trip id="veh68" depart="79.08" departLane="best" from="-315275163" to="-45985481#0" type="passenger"/>
    <trip id="veh69" depart="80.24" departLane="best" from="177922838#3" to="302113472" type="passenger"/>
    <trip id="veh70" depart="81.40" departLane="best" from="-24283528#4" to="31584504#2" type="passenger"/>
    <trip id="veh71" depart="82.57" departLane="best" from="45985481#0" to="-291193537" type="passenger"/>
    <trip id="veh72" depart="83.73" departLane="best" from="-69033973" to="338025192#1" type="passenger"/>
    <trip id="veh73" depart="84.89" departLane="best" from="-525510189" to="-31623244#0" type="passenger"/>
    <trip id="veh74" depart="86.06" departLane="best" from="7933408#0" to="278314967" type="passenger"/>
    <trip id="veh76" depart="88.38" departLane="best" from="43707055#0" to="-43056321#1" type="passenger"/>
    <trip id="veh77" depart="89.54" departLane="best" from="24283528#3" to="23893976" type="passenger"/>
    <trip id="veh78" depart="90.71" departLane="best" from="389686394#1" to="338025195#1" type="passenger"/>
    <trip id="veh79" depart="91.87" departLane="best" from="23893754#4" to="171984639#1" type="passenger"/>
    <trip id="veh80" depart="93.03" departLane="best" from="45985481#0" to="-56019866" type="passenger"/>
    <trip id="veh81" depart="94.20" departLane="best" from="-43707293" to="23893810#1" type="passenger"/>
    <trip id="veh82" depart="95.36" departLane="best" from="24283528#2" to="10511797#0" type="passenger"/>
    <trip id="veh83" depart="96.52" departLane="best" from="24283574#0" to="45763754#1" type="passenger"/>
    <trip id="veh84" depart="97.68" departLane="best" from="307657355" to="-24283528#0" type="passenger"/>
    <trip id="veh85" depart="98.85" departLane="best" from="79816479#2" to="439842578" type="passenger"/>
    <trip id="veh86" depart="100.01" departLane="best" from="7976495#0" to="7932712#3" type="passenger"/>
    <trip id="veh87" depart="101.17" departLane="best" from="44356590" to="-372299410#0" type="passenger"/>
    <trip id="veh88" depart="102.34" departLane="best" from="27173012" to="-44194781#1" type="passenger"/>
    <trip id="veh89" depart="103.50" departLane="best" from="23893754#3" to="-25199500#0" type="passenger"/>
    <trip id="veh91" depart="105.83" departLane="best" from="25199500#0" to="23893643#1" type="passenger"/>
    <trip id="veh92" depart="106.99" departLane="best" from="7936613#0" to="79816479#0" type="passenger"/>
    <trip id="veh93" depart="108.15" departLane="best" from="31579377" to="37153661" type="passenger"/>
    <trip id="veh94" depart="109.31" departLane="best" from="-363255022" to="108489923#0" type="passenger"/>
    <trip id="veh95" depart="110.48" departLane="best" from="306097794" to="37590015" type="passenger"/>
    <trip id="veh96" depart="111.64" departLane="best" from="-23893849#1" to="299836710" type="passenger"/>
    <trip id="veh97" depart="112.80" departLane="best" from="291193537" to="44356591#1" type="passenger"/>
    <trip id="veh98" depart="113.97" departLane="best" from="-364789855" to="7936457" type="passenger"/>
    <trip id="veh99" depart="115.13" departLane="best" from="-25199500#0" to="-43056321#0" type="passenger"/>
    <trip id="veh100" depart="116.29" departLane="best" from="31622052" to="338683089#0" type="passenger"/>
    <trip id="veh101" depart="117.45" departLane="best" from="-69033973" to="-31579377" type="passenger"/>
    <trip id="veh102" depart="118.62" departLane="best" from="52698705#0" to="-56019866" type="passenger"/>
    <trip id="veh103" depart="119.78" departLane="best" from="31622052" to="31579388#1" type="passenger"/>
    <trip id="veh105" depart="122.11" departLane="best" from="-45763754#1" to="37146434#0" type="passenger"/>
    <trip id="veh106" depart="123.27" departLane="best" from="-69033973" to="190629953#1" type="passenger"/>
    <trip id="veh107" depart="124.43" departLane="best" from="37196673#1" to="113272394#1" type="passenger"/>
    <trip id="veh109" depart="126.76" departLane="best" from="-24283528#4" to="23893849#1" type="passenger"/>
    <trip id="veh110" depart="127.92" departLane="best" from="-24283528#4" to="-44194781#0" type="passenger"/>
    <trip id="veh111" depart="129.08" departLane="best" from="44194781#0" to="363818322" type="passenger"/>
    <trip id="veh112" depart="130.25" departLane="best" from="363255022" to="-177921034" type="passenger"/>
    <trip id="veh113" depart="131.41" departLane="best" from="43707293" to="113272394#1" type="passenger"/>
    <trip id="veh114" depart="132.57" departLane="best" from="37146431" to="7933944" type="passenger"/>
    <trip id="veh115" depart="133.73" departLane="best" from="-31579388#1" to="-307657355" type="passenger"/>
    <trip id="veh116" depart="134.90" departLane="best" from="-278314967" to="27173072" type="passenger"/>
    <trip id="veh118" depart="137.22" departLane="best" from="377882530" to="-439842578" type="passenger"/>
    <trip id="veh119" depart="138.39" departLane="best" from="343528767#0" to="-7933104#0" type="passenger"/>
    <trip id="veh120" depart="139.55" departLane="best" from="275777271#1" to="56725337#2" type="passenger"/>
    <trip id="veh122" depart="141.88" departLane="best" from="24283528#3" to="10508024#3" type="passenger"/>
    <trip id="veh123" depart="143.04" departLane="best" from="-113280420" to="38215485#0" type="passenger"/>
    <trip id="veh124" depart="144.20" departLane="best" from="343528767#0" to="-58064599#1" type="passenger"/>
    <trip id="veh125" depart="145.36" departLane="best" from="404917413" to="27173012" type="passenger"/>
    <trip id="veh126" depart="146.53" departLane="best" from="24283548#1" to="-177921037" type="passenger"/>
    <trip id="veh127" depart="147.69" departLane="best" from="-24283528#4" to="466395278" type="passenger"/>
    <trip id="veh128" depart="148.85" departLane="best" from="56019866" to="26616191#0" type="passenger"/>
    <trip id="veh129" depart="150.02" departLane="best" from="44194781#0" to="299836710" type="passenger"/>
    <trip id="veh130" depart="151.18" departLane="best" from="13347875#2" to="55488308" type="passenger"/>
    <trip id="veh132" depart="153.50" departLane="best" from="56019866" to="-44194781#0" type="passenger"/>
    <trip id="veh133" depart="154.67" departLane="best" from="-7933104#1" to="-306097796" type="passenger"/>
    <trip id="veh134" depart="155.83" departLane="best" from="413528724" to="497860197#0" type="passenger"/>
    <trip id="veh135" depart="156.99" departLane="best" from="23893810#1" to="31579388#1" type="passenger"/>
    <trip id="veh136" depart="158.16" departLane="best" from="-363255022" to="7933104#1" type="passenger"/>
    <trip id="veh137" depart="159.32" departLane="best" from="45985481#0" to="7976495#0" type="passenger"/>
    <trip id="veh138" depart="160.48" departLane="best" from="43707055#2" to="466395276#1" type="passenger"/>
    <trip id="veh139" depart="161.64" departLane="best" from="-186736159" to="372299411#3" type="passenger"/>
    <trip id="veh140" depart="162.81" departLane="best" from="177921854#1" to="7933127" type="passenger"/>
    <trip id="veh142" depart="165.13" departLane="best" from="42835112" to="-306097796" type="passenger"/>
    <trip id="veh143" depart="166.30" departLane="best" from="46331380#0" to="45763754#1" type="passenger"/>
    <trip id="veh144" depart="167.46" departLane="best" from="-56725337#0" to="43056322#0" type="passenger"/>
    <trip id="veh145" depart="168.62" departLane="best" from="256854467" to="113280420" type="passenger"/>
    <trip id="veh147" depart="170.95" departLane="best" from="-186736159" to="-43707293" type="passenger"/>
    <trip id="veh148" depart="172.11" departLane="best" from="177921037" to="45763754#1" type="passenger"/>
    <trip id="veh149" depart="173.27" departLane="best" from="7976486#1" to="10511797#0" type="passenger"/>
    <trip id="veh150" depart="174.44" departLane="best" from="343528767#0" to="231374322#0" type="passenger"/>
    <trip id="veh151" depart="175.60" departLane="best" from="7976556#0" to="26598858#1" type="passenger"/>
    <trip id="veh152" depart="176.76" departLane="best" from="7976495#1" to="-404917414" type="passenger"/>
    <trip id="veh153" depart="177.93" departLane="best" from="-278314967" to="23893728#0" type="passenger"/>
    <trip id="veh154" depart="179.09" departLane="best" from="389686394#1" to="117297985#0" type="passenger"/>
    <trip id="veh155" depart="180.25" departLane="best" from="23893687#0" to="278314967" type="passenger"/>
    <trip id="veh156" depart="181.41" departLane="best" from="-7934417" to="364789855" type="passenger"/>
    <trip id="veh157" depart="182.58" departLane="best" from="-108489923#1" to="7932712#3" type="passenger"/>
    <trip id="veh158" depart="183.74" departLane="best" from="306097794" to="37190757" type="passenger"/>
    <trip id="veh159" depart="184.90" departLane="best" from="404917413" to="338025195#0" type="passenger"/>
    <trip id="veh160" depart="186.07" departLane="best" from="205274906" to="-291193537" type="passenger"/>
    <trip id="veh161" depart="187.23" departLane="best" from="37146431" to="122905764#4" type="passenger"/>
    <trip id="veh162" depart="188.39" departLane="best" from="177921033" to="44356590" type="passenger"/>
    <trip id="veh163" depart="189.55" departLane="best" from="171984639#0" to="23287517" type="passenger"/>
    <trip id="veh164" depart="190.72" departLane="best" from="-315275163" to="23582606#4" type="passenger"/>
    <trip id="veh165" depart="191.88" departLane="best" from="7933774#0" to="338683089#1" type="passenger"/>
    <trip id="veh166" depart="193.04" departLane="best" from="56019866" to="31579378" type="passenger"/>
    <trip id="veh167" depart="194.21" departLane="best" from="122905764#3" to="26616191#1" type="passenger"/>
    <trip id="veh168" depart="195.37" departLane="best" from="-108297381" to="10511797#2" type="passenger"/>
    <trip id="veh169" depart="196.53" departLane="best" from="24283548#2" to="286078255" type="passenger"/>
    <trip id="veh170" depart="197.70" departLane="best" from="363472323" to="23893849#1" type="passenger"/>
    <trip id="veh171" depart="198.86" departLane="best" from="24283574#0" to="-44194781#1" type="passenger"/>
    <trip id="veh173" depart="201.18" departLane="best" from="-25199500#3" to="243064143#1" type="passenger"/>
    <trip id="veh174" depart="202.35" departLane="best" from="343517468#1" to="13347875#2" type="passenger"/>
    <trip id="veh176" depart="204.67" departLane="best" from="37196673#1" to="-45985481#0" type="passenger"/>
    <trip id="veh177" depart="205.84" departLane="best" from="-45763754#1" to="-186736235#5" type="passenger"/>
    <trip id="veh178" depart="207.00" departLane="best" from="-7933104#1" to="24283528#2" type="passenger"/>
    <trip id="veh179" depart="208.16" departLane="best" from="44356590" to="-291193537" type="passenger"/>
    <trip id="veh180" depart="209.32" departLane="best" from="23893976" to="31584504#1" type="passenger"/>
    <trip id="veh181" depart="210.49" departLane="best" from="-44194781#2" to="363472323" type="passenger"/>
    <trip id="veh182" depart="211.65" departLane="best" from="286078255" to="-56019866" type="passenger"/>
    <trip id="veh183" depart="212.81" departLane="best" from="363520361" to="-117297986#1" type="passenger"/>
    <trip id="veh184" depart="213.98" departLane="best" from="407497545#0" to="38215231#1" type="passenger"/>
    <trip id="veh185" depart="215.14" departLane="best" from="-278314967" to="23893643#2" type="passenger"/>
    <trip id="veh186" depart="216.30" departLane="best" from="302113483#0" to="-24283528#0" type="passenger"/>
    <trip id="veh187" depart="217.46" departLane="best" from="-7933104#1" to="44356590" type="passenger"/>
    <trip id="veh188" depart="218.63" departLane="best" from="25199500#1" to="411909327#0" type="passenger"/>
    <trip id="veh189" depart="219.79" departLane="best" from="37153661" to="7976593#1" type="passenger"/>
    <trip id="veh190" depart="220.95" departLane="best" from="31622095" to="7936303#0" type="passenger"/>
    <trip id="veh191" depart="222.12" departLane="best" from="52739335#0" to="31579378" type="passenger"/>
    <trip id="veh192" depart="223.28" departLane="best" from="377882536#0" to="24283559#2" type="passenger"/>
    <trip id="veh193" depart="224.44" departLane="best" from="44194781#0" to="26616191#1" type="passenger"/>
    <trip id="veh195" depart="226.77" departLane="best" from="26616666" to="-56725337#3" type="passenger"/>
    <trip id="veh197" depart="229.09" departLane="best" from="411911880" to="25199500#1" type="passenger"/>
    <trip id="veh198" depart="230.26" departLane="best" from="338683089#0" to="10508024#2" type="passenger"/>
    <trip id="veh199" depart="231.42" departLane="best" from="-24283528#4" to="10511797#2" type="passenger"/>
    <trip id="veh201" depart="233.75" departLane="best" from="306097794" to="-334883453" type="passenger"/>
    <trip id="veh202" depart="234.91" departLane="best" from="-69033973" to="363255022" type="passenger"/>
    <trip id="veh203" depart="236.07" departLane="best" from="23893810#2" to="26598953" type="passenger"/>
    <trip id="veh204" depart="237.23" departLane="best" from="23893983" to="-44194781#0" type="passenger"/>
    <trip id="veh205" depart="238.40" departLane="best" from="24283528#1" to="56725337#1" type="passenger"/>
    <trip id="veh206" depart="239.56" departLane="best" from="31620416#1" to="363472323" type="passenger"/>
    <trip id="veh207" depart="240.72" departLane="best" from="23893643#0" to="-117297986#1" type="passenger"/>
    <trip id="veh208" depart="241.89" departLane="best" from="186822215#0" to="377851569#1" type="passenger"/>
    <trip id="veh209" depart="243.05" departLane="best" from="44356591#2" to="7936303#2" type="passenger"/>
    <trip id="veh210" depart="244.21" departLane="best" from="24283528#0" to="37590015" type="passenger"/>
    <trip id="veh211" depart="245.37" departLane="best" from="307657355" to="315275163" type="passenger"/>
    <trip id="veh212" depart="246.54" departLane="best" from="-55556740#1" to="-45763754#0" type="passenger"/>
    <trip id="veh214" depart="248.86" departLane="best" from="177922838#2" to="343517461" type="passenger"/>
    <trip id="veh215" depart="250.03" departLane="best" from="23893810#0" to="-372299410#0" type="passenger"/>
    <trip id="veh216" depart="251.19" departLane="best" from="26598953" to="-31579388#0" type="passenger"/>
    <trip id="veh218" depart="253.51" departLane="best" from="23893728#1" to="275777271#1" type="passenger"/>
    <trip id="veh220" depart="255.84" departLane="best" from="-31579388#1" to="23893849#1" type="passenger"/>
    <trip id="veh221" depart="257.00" departLane="best" from="-23893643#0" to="186736235#7" type="passenger"/>
    <trip id="veh222" depart="258.17" departLane="best" from="-497860197#0" to="122905764#2" type="passenger"/>
    <trip id="veh223" depart="259.33" departLane="best" from="411908606" to="186736235#7" type="passenger"/>
    <trip id="veh224" depart="260.49" departLane="best" from="407497545#0" to="43707293" type="passenger"/>
    <trip id="veh225" depart="261.66" departLane="best" from="-7934417" to="-302113483#0" type="passenger"/>
    <trip id="veh226" depart="262.82" departLane="best" from="-186736159" to="26598924#0" type="passenger"/>
    <trip id="veh227" depart="263.98" departLane="best" from="79816479#2" to="177921038" type="passenger"/>
    <trip id="veh228" depart="265.14" departLane="best" from="359428795" to="404917414" type="passenger"/>
    <trip id="veh229" depart="266.31" departLane="best" from="363159274" to="377851569#1" type="passenger"/>
    <trip id="veh230" depart="267.47" departLane="best" from="7936314#0" to="-43707627" type="passenger"/>
    <trip id="veh231" depart="268.63" departLane="best" from="-186736159" to="-343528767#0" type="passenger"/>
    <trip id="veh232" depart="269.80" departLane="best" from="31579388#0" to="-44194781#3" type="passenger"/>
    <trip id="veh233" depart="270.96" departLane="best" from="37554816#1" to="377882536#1" type="passenger"/>
    <trip id="veh234" depart="272.12" departLane="best" from="-377882536#0" to="315275163" type="passenger"/>
    <trip id="veh235" depart="273.28" departLane="best" from="407497545#0" to="-307657355" type="passenger"/>
    <trip id="veh236" depart="274.45" departLane="best" from="43707294" to="7936613#1" type="passenger"/>
    <trip id="veh238" depart="276.77" departLane="best" from="171984639#1" to="338683089#1" type="passenger"/>
    <trip id="veh239" depart="277.94" departLane="best" from="7936613#1" to="210597392#0" type="passenger"/>
    <trip id="veh240" depart="279.10" departLane="best" from="377882528" to="-291193537" type="passenger"/>
    <trip id="veh241" depart="280.26" departLane="best" from="37554816#0" to="31584504#0" type="passenger"/>
    <trip id="veh242" depart="281.42" departLane="best" from="-27173072" to="38215485#1" type="passenger"/>
    <trip id="veh243" depart="282.59" departLane="best" from="44356591#0" to="315275163" type="passenger"/>
    <trip id="veh244" depart="283.75" departLane="best" from="42835112" to="177921036#0" type="passenger"/>
    <trip id="veh245" depart="284.91" departLane="best" from="24283548#2" to="186736235#0" type="passenger"/>
    <trip id="veh246" depart="286.08" departLane="best" from="299836710" to="171984641#0" type="passenger"/>
    <trip id="veh247" depart="287.24" departLane="best" from="-277741511" to="7936457" type="passenger"/>
    <trip id="veh248" depart="288.40" departLane="best" from="343528767#0" to="43707065#1" type="passenger"/>
    <trip id="veh251" depart="291.89" departLane="best" from="24283552#2" to="372299410#1" type="passenger"/>
    <trip id="veh252" depart="293.05" departLane="best" from="10508024#3" to="44356591#1" type="passenger"/>
    <trip id="veh253" depart="294.22" departLane="best" from="44194781#0" to="-302113483#0" type="passenger"/>
    <trip id="veh254" depart="295.38" departLane="best" from="466395278" to="-56019866" type="passenger"/>
    <trip id="veh255" depart="296.54" departLane="best" from="26598924#0" to="31579378" type="passenger"/>
    <trip id="veh257" depart="298.87" departLane="best" from="-497860197#0" to="411257679#3" type="passenger"/>
    <trip id="veh258" depart="300.03" departLane="best" from="186736235#0" to="466395276#1" type="passenger"/>
    <trip id="veh259" depart="301.19" departLane="best" from="37589764#0" to="10508024#3" type="passenger"/>
    <trip id="veh260" depart="302.36" departLane="best" from="-113280420" to="7934417" type="passenger"/>
    <trip id="veh261" depart="303.52" departLane="best" from="-25199500#3" to="37190757" type="passenger"/>
    <trip id="veh262" depart="304.68" departLane="best" from="275777271#1" to="377879487#1" type="passenger"/>
    <trip id="veh264" depart="307.01" departLane="best" from="275777470#1" to="407873338" type="passenger"/>
    <trip id="veh265" depart="308.17" departLane="best" from="-264129023" to="-45985481#0" type="passenger"/>
    <trip id="veh266" depart="309.33" departLane="best" from="37554816#0" to="113280420" type="passenger"/>
    <trip id="veh268" depart="311.66" departLane="best" from="302299800#0" to="23893643#2" type="passenger"/>
    <trip id="veh269" depart="312.82" departLane="best" from="407497545#0" to="122905764#4" type="passenger"/>
    <trip id="veh270" depart="313.99" departLane="best" from="37589764#1" to="10508024#0" type="passenger"/>
    <trip id="veh271" depart="315.15" departLane="best" from="-7934417" to="-31579388#0" type="passenger"/>
    <trip id="veh272" depart="316.31" departLane="best" from="-44194781#1" to="-31579377" type="passenger"/>
    <trip id="veh273" depart="317.48" departLane="best" from="306097794" to="377882530" type="passenger"/>
    <trip id="veh274" depart="318.64" departLane="best" from="-407873338" to="-44194781#2" type="passenger"/>
    <trip id="veh275" depart="319.80" departLane="best" from="27173012" to="372299409#0" type="passenger"/>
    <trip id="veh276" depart="320.96" departLane="best" from="7976556#0" to="25199500#3" type="passenger"/>
    <trip id="veh277" depart="322.13" departLane="best" from="113272394#1" to="-306097796" type="passenger"/>
    <trip id="veh278" depart="323.29" departLane="best" from="-44194781#2" to="-45985481#0" type="passenger"/>
    <trip id="veh279" depart="324.45" departLane="best" from="-407873338" to="-177921037" type="passenger"/>
    <trip id="veh280" depart="325.62" departLane="best" from="302299800#1" to="10508024#2" type="passenger"/>
    <trip id="veh281" depart="326.78" departLane="best" from="7976556#0" to="27173072" type="passenger"/>
    <trip id="veh282" depart="327.94" departLane="best" from="37554816#0" to="-31579388#0" type="passenger"/>
    <trip id="veh283" depart="329.10" departLane="best" from="46233529" to="24283548#1" type="passenger"/>
    <trip id="veh284" depart="330.27" departLane="best" from="46331380#0" to="278314967" type="passenger"/>
    <trip id="veh285" depart="331.43" departLane="best" from="-407873338" to="-24283528#0" type="passenger"/>
    <trip id="veh286" depart="332.59" departLane="best" from="7933944" to="24283528#3" type="passenger"/>
    <trip id="veh287" depart="333.76" departLane="best" from="43707627" to="231374322#0" type="passenger"/>
    <trip id="veh288" depart="334.92" departLane="best" from="-24283528#4" to="31584504#1" type="passenger"/>
    <trip id="veh289" depart="336.08" departLane="best" from="-23893643#2" to="-343528767#0" type="passenger"/>
    <trip id="veh290" depart="337.24" departLane="best" from="31579388#0" to="113280420" type="passenger"/>
    <trip id="veh291" depart="338.41" departLane="best" from="7976631#2" to="-31579377" type="passenger"/>
    <trip id="veh292" depart="339.57" departLane="best" from="411909327#1" to="315275163" type="passenger"/>
    <trip id="veh293" depart="340.73" departLane="best" from="42956774" to="-45985481#0" type="passenger"/>
    <trip id="veh294" depart="341.90" departLane="best" from="302113483#1" to="23893810#2" type="passenger"/>
    <trip id="veh295" depart="343.06" departLane="best" from="24283574#0" to="45763754#1" type="passenger"/>
    <trip id="veh296" depart="344.22" departLane="best" from="7976631#0" to="113280420" type="passenger"/>
    <trip id="veh297" depart="345.38" departLane="best" from="338025192#1" to="31579378" type="passenger"/>
    <trip id="veh299" depart="347.71" departLane="best" from="-45985481#2" to="-44194781#0" type="passenger"/>
    <trip id="veh300" depart="348.87" departLane="best" from="363554496" to="-343528767#1" type="passenger"/>
    <trip id="veh301" depart="350.04" departLane="best" from="-390044752" to="-291193537" type="passenger"/>
    <trip id="veh302" depart="351.20" departLane="best" from="-108489923#1" to="23893810#2" type="passenger"/>
    <trip id="veh303" depart="352.36" departLane="best" from="31622052" to="10529189#0" type="passenger"/>