<?xml version="1.0" encoding="UTF-8"?>

<!-- generated on 12/19/17 02:12:42 by SUMO polyconvert Version 0.31.0
<?xml version="1.0" encoding="UTF-8"?>

<configuration xmlns:xsi="http://www.w3.org/2001/XMLSchema-instance" xsi:noNamespaceSchemaLocation="http://sumo.dlr.de/xsd/polyconvertConfiguration.xsd">

    <input>
        <net-file value="C:\Users\Traian\Sumo\2017-12-19-02-12-38\osm.net.xml"/>
        <osm-files value="osm_bbox.osm.xml"/>
        <osm.keep-full-type value="true"/>
        <type-file value="C:\Program%20Files%20(x86)\DLR\Sumo\data\typemap\osmPolyconvert.typ.xml"/>
    </input>

    <output>
        <output-file value="C:\Users\Traian\Sumo\2017-12-19-02-12-38\osm.poly.xml"/>
    </output>

    <processing>
        <poi-layer-offset value="5"/>
    </processing>

    <report>
        <verbose value="true"/>
    </report>

</configuration>
-->

<additional xmlns:xsi="http://www.w3.org/2001/XMLSchema-instance" xsi:noNamespaceSchemaLocation="http://sumo.dlr.de/xsd/additional_file.xsd">
    <location netOffset="-696601.99,-5181924.65" convBoundary="-15481.52,-3534.02,10735.62,3796.05" origBoundary="23.371162,46.729529,23.716672,46.794316" projParameter="+proj=utm +zone=34 +ellps=WGS84 +datum=WGS84 +units=m +no_defs"/>

    <poly id="107995172" type="amenity.hospital" color="237,199,199" fill="1" layer="-1.00" shape="734.77,452.79 739.93,440.81 772.92,454.98 767.75,466.94 734.77,452.79"/>
    <poly id="107995172#1" type="building.yes" color="255,230,230" fill="1" layer="-1.00" shape="734.77,452.79 739.93,440.81 772.92,454.98 767.75,466.94 734.77,452.79"/>
    <poly id="107995173" type="amenity.hospital" color="237,199,199" fill="1" layer="-1.00" shape="673.59,406.35 681.11,389.17 694.17,394.85 692.27,399.19 703.42,404.05 706.40,397.23 700.40,394.62 704.93,384.28 711.56,387.15 714.96,379.38 707.56,376.16 712.78,364.22 733.32,373.16 711.55,422.87 673.59,406.35"/>
    <poly id="107995173#1" type="building.yes" color="255,230,230" fill="1" layer="-1.00" shape="673.59,406.35 681.11,389.17 694.17,394.85 692.27,399.19 703.42,404.05 706.40,397.23 700.40,394.62 704.93,384.28 711.56,387.15 714.96,379.38 707.56,376.16 712.78,364.22 733.32,373.16 711.55,422.87 673.59,406.35"/>
    <poly id="107995174" type="amenity.hospital" color="237,199,199" fill="1" layer="-1.00" shape="635.10,447.44 646.91,420.76 666.81,429.51 655.00,456.20 635.10,447.44"/>
    <poly id="107995174#1" type="building.yes" color="255,230,230" fill="1" layer="-1.00" shape="635.10,447.44 646.91,420.76 666.81,429.51 655.00,456.20 635.10,447.44"/>
    <poly id="107995177" type="amenity.hospital" color="237,199,199" fill="1" layer="-1.00" shape="743.11,471.83 727.01,464.36 711.04,498.59 772.53,527.10 789.40,490.92 773.34,483.47 763.87,503.79 734.54,490.19 743.11,471.83"/>
    <poly id="107995177#1" type="building.yes" color="255,230,230" fill="1" layer="-1.00" shape="743.11,471.83 727.01,464.36 711.04,498.59 772.53,527.10 789.40,490.92 773.34,483.47 763.87,503.79 734.54,490.19 743.11,471.83"/>
    <poly id="107995179" type="amenity.hospital" color="237,199,199" fill="1" layer="-1.00" shape="571.71,438.43 589.48,397.27 601.60,402.47 595.76,416.01 618.94,425.96 622.88,416.83 635.87,422.41 619.98,459.23 606.59,453.48 612.25,440.34 606.14,437.72 600.84,450.01 588.19,444.59 593.56,432.14 589.90,430.56 584.20,443.78 571.71,438.43"/>
    <poly id="107995179#1" type="building.yes" color="255,230,230" fill="1" layer="-1.00" shape="571.71,438.43 589.48,397.27 601.60,402.47 595.76,416.01 618.94,425.96 622.88,416.83 635.87,422.41 619.98,459.23 606.59,453.48 612.25,440.34 606.14,437.72 600.84,450.01 588.19,444.59 593.56,432.14 589.90,430.56 584.20,443.78 571.71,438.43"/>
    <poly id="107995184" type="building.yes" color="255,230,230" fill="1" layer="-1.00" shape="754.35,439.84 761.61,424.08 754.91,421.02 752.79,425.62 739.61,419.58 747.11,403.31 761.93,410.10 766.37,400.48 756.83,396.11 754.97,400.14 742.71,394.51 728.57,425.17 727.49,427.52 754.35,439.84"/>
    <poly id="108031425" type="amenity.hospital" color="237,199,199" fill="1" layer="-1.00" shape="628.25,462.95 633.33,451.99 653.38,461.23 648.29,472.18 628.25,462.95"/>
    <poly id="108031425#1" type="building.yes" color="255,230,230" fill="1" layer="-1.00" shape="628.25,462.95 633.33,451.99 653.38,461.23 648.29,472.18 628.25,462.95"/>
    <poly id="108033268" type="amenity.hospital" color="237,199,199" fill="1" layer="-1.00" shape="653.78,474.30 669.64,436.76 681.87,441.88 678.36,450.18 701.14,459.75 705.07,450.45 718.30,456.01 702.17,494.53 688.24,488.18 694.59,472.58 690.14,470.47 683.29,486.28 672.01,481.49 678.41,465.73 674.65,464.21 667.89,480.22 653.78,474.30"/>
    <poly id="108033268#1" type="building.yes" color="255,230,230" fill="1" layer="-1.00" shape="653.78,474.30 669.64,436.76 681.87,441.88 678.36,450.18 701.14,459.75 705.07,450.45 718.30,456.01 702.17,494.53 688.24,488.18 694.59,472.58 690.14,470.47 683.29,486.28 672.01,481.49 678.41,465.73 674.65,464.21 667.89,480.22 653.78,474.30"/>
    <poly id="108068959" type="amenity.hospital" color="237,199,199" fill="1" layer="-1.00" shape="771.64,473.88 776.72,460.90 798.04,469.20 794.55,478.13 798.58,479.71 796.99,483.75 771.64,473.88"/>
    <poly id="108068959#1" type="building.yes" color="255,230,230" fill="1" layer="-1.00" shape="771.64,473.88 776.72,460.90 798.04,469.20 794.55,478.13 798.58,479.71 796.99,483.75 771.64,473.88"/>
    <poly id="108068963" type="building.yes" color="255,230,230" fill="1" layer="-1.00" shape="749.58,491.69 746.92,482.14 753.18,477.57 758.33,478.96 760.98,486.83 754.89,493.20 749.58,491.69"/>
    <poly id="108068967" type="amenity.library" color="237,199,199" fill="1" layer="-1.00" shape="718.17,592.70 737.70,549.93 753.44,557.03 761.93,560.86 791.40,574.15 798.19,596.36 794.34,603.62 770.51,648.58 730.16,628.78 734.25,617.27 736.25,611.62 732.56,599.71 718.17,592.70"/>
    <poly id="108068969" type="amenity.community_centre" color="237,199,199" fill="1" layer="-1.00" shape="830.13,579.15 837.17,563.34 856.03,571.68 865.00,551.51 861.21,549.84 870.75,528.42 903.92,543.09 895.13,562.86 893.61,562.20 883.35,585.25 901.84,593.44 894.93,608.96 878.30,601.61 876.65,605.32 847.01,592.21 849.09,587.54 848.70,587.37 830.13,579.15"/>
    <poly id="108068969#1" type="building.public" color="255,230,230" fill="1" layer="-1.00" shape="830.13,579.15 837.17,563.34 856.03,571.68 865.00,551.51 861.21,549.84 870.75,528.42 903.92,543.09 895.13,562.86 893.61,562.20 883.35,585.25 901.84,593.44 894.93,608.96 878.30,601.61 876.65,605.32 847.01,592.21 849.09,587.54 848.70,587.37 830.13,579.15"/>
    <poly id="108277658" type="amenity.townhall" color="237,199,199" fill="1" layer="-1.00" shape="747.27,705.36 747.25,705.48 733.90,732.84 728.64,743.61 764.59,766.62 794.76,706.29 774.37,696.87 770.34,705.76 777.86,709.02 775.22,714.81 747.27,705.36"/>
    <poly id="108277658#1" type="building.yes" color="255,230,230" fill="1" layer="-1.00" shape="747.27,705.36 747.25,705.48 733.90,732.84 728.64,743.61 764.59,766.62 794.76,706.29 774.37,696.87 770.34,705.76 777.86,709.02 775.22,714.81 747.27,705.36"/>
    <poly id="108277663" type="amenity.parking" color="184,184,179" fill="1" layer="-1.00" shape="766.51,665.00 739.00,651.97 719.77,692.32 747.27,705.36 766.51,665.00"/>
    <poly id="108277663#1" type="building.yes" color="255,230,230" fill="1" layer="-1.00" shape="766.51,665.00 739.00,651.97 719.77,692.32 747.27,705.36 766.51,665.00"/>
    <poly id="108277664" type="building.yes" color="255,230,230" fill="1" layer="-1.00" shape="774.37,696.87 779.46,686.59 786.68,689.83 805.48,651.47 799.12,648.26 807.74,630.76 825.32,638.23 794.76,706.29 774.37,696.87"/>
    <poly id="108493882" type="amenity.university" color="237,199,199" fill="1" layer="-1.00" shape="1155.46,573.99 1167.29,574.48 1168.80,538.03 1115.52,535.81 1115.38,539.11 1114.71,555.28 1114.01,572.27 1128.43,572.87 1128.87,553.26 1155.92,553.95 1155.46,573.99"/>
    <poly id="108493882#1" type="building.yes" color="255,230,230" fill="1" layer="-1.00" shape="1155.46,573.99 1167.29,574.48 1168.80,538.03 1115.52,535.81 1115.38,539.11 1114.71,555.28 1114.01,572.27 1128.43,572.87 1128.87,553.26 1155.92,553.95 1155.46,573.99"/>
    <poly id="108493883" type="building.yes" color="255,230,230" fill="1" layer="-1.00" shape="892.10,581.85 914.16,590.47 926.16,559.94 904.20,551.36 899.98,562.06 910.82,566.30 907.00,576.03 896.07,571.76 892.10,581.85"/>
    <poly id="108494565" type="building.yes" color="255,230,230" fill="1" layer="-1.00" shape="767.40,445.23 790.68,455.39 793.29,447.74 787.88,445.18 790.56,437.82 785.98,435.81 790.62,425.42 778.63,420.09 767.40,445.23"/>
    <poly id="111559317" type="amenity.parking" color="184,184,179" fill="1" layer="-1.00" shape="1036.66,961.19 1118.09,1015.01 1124.36,1019.15 1140.60,990.96 1137.94,989.58 1126.32,983.57 1120.24,981.37 1094.80,970.97 1062.81,954.93 1045.82,945.54 1036.66,961.19"/>
    <poly id="113803391" type="landuse.cemetery" color="194,194,130" fill="1" layer="-3.00" shape="1607.76,441.74 1535.86,442.74 1516.02,459.80 1547.94,513.67 1559.11,526.26 1557.94,562.57 1554.08,581.58 1592.20,600.12 1605.09,548.25 1604.95,471.60 1620.46,471.78 1620.21,449.19 1607.76,441.74"/>
    <poly id="132410582" type="leisure.pitch" color="207,245,201" fill="1" layer="-2.00" shape="1604.22,1502.53 1637.70,1469.31 1653.69,1482.53 1621.72,1518.63 1604.22,1502.53"/>
    <poly id="132410582#1" type="sport.soccer" color="79,230,125" fill="1" layer="-2.00" shape="1604.22,1502.53 1637.70,1469.31 1653.69,1482.53 1621.72,1518.63 1604.22,1502.53"/>
    <poly id="132410583" type="amenity.school" color="237,199,199" fill="1" layer="-1.00" shape="1593.03,1518.51 1604.07,1507.02 1580.85,1490.32 1601.05,1461.97 1621.03,1477.74 1631.25,1466.23 1570.37,1423.31 1533.27,1478.53 1593.03,1518.51"/>
    <poly id="132410583#1" type="building.yes" color="255,230,230" fill="1" layer="-1.00" shape="1593.03,1518.51 1604.07,1507.02 1580.85,1490.32 1601.05,1461.97 1621.03,1477.74 1631.25,1466.23 1570.37,1423.31 1533.27,1478.53 1593.03,1518.51"/>
    <poly id="151609028" type="amenity.hospital" color="237,199,199" fill="1" layer="-1.00" shape="538.47,431.79 505.80,416.04 502.40,403.14 515.22,375.75 522.81,361.32 531.54,356.35 534.81,346.65 540.86,333.30 550.17,310.74 559.18,291.21 591.31,304.98 657.65,333.16 692.89,349.64 705.75,355.65 713.01,361.10 761.01,385.15 794.94,400.58 801.72,556.12 742.77,528.43 690.62,649.05 687.54,647.40 626.84,617.95 613.40,611.35 584.17,596.97 576.04,592.98 557.81,584.01 555.24,582.75 572.16,543.61 606.27,464.67 538.47,431.79"/>
    <poly id="154946207" type="building.yes" color="255,230,230" fill="1" layer="-1.00" shape="1072.62,1230.63 1059.65,1265.28 1092.77,1277.61 1090.73,1283.04 1126.40,1296.31 1142.70,1252.74 1131.12,1248.44 1129.82,1251.92 1072.62,1230.63"/>
    <poly id="154946207#1" type="shop.department_store" color="237,199,255" fill="1" layer="-1.00" shape="1072.62,1230.63 1059.65,1265.28 1092.77,1277.61 1090.73,1283.04 1126.40,1296.31 1142.70,1252.74 1131.12,1248.44 1129.82,1251.92 1072.62,1230.63"/>
    <poly id="155045033" type="building.yes" color="255,230,230" fill="1" layer="-1.00" shape="1363.21,1402.70 1336.89,1400.65 1333.63,1442.51 1338.92,1442.92 1338.40,1449.53 1339.68,1450.92 1341.58,1451.82 1344.17,1451.34 1345.75,1450.10 1346.27,1443.49 1362.09,1444.71 1360.79,1460.11 1409.00,1464.14 1407.89,1477.34 1443.23,1480.31 1444.70,1462.78 1450.35,1463.25 1453.76,1422.65 1448.11,1422.18 1448.90,1412.81 1440.25,1412.08 1442.46,1387.02 1412.41,1385.10 1386.85,1384.05 1386.18,1396.72 1381.81,1396.49 1363.79,1395.10 1363.21,1402.70"/>
    <poly id="174534304" type="building.commercial" color="255,230,230" fill="1" layer="-1.00" shape="949.39,1291.58 996.48,1308.58 984.78,1326.88 949.39,1291.58"/>
    <poly id="174534305" type="building.yes" color="255,230,230" fill="1" layer="-1.00" shape="1118.48,1487.71 1136.12,1467.99 1147.84,1448.48 1158.12,1424.19 1169.12,1426.71 1162.75,1446.01 1193.82,1474.63 1181.51,1494.33 1143.04,1480.04 1127.40,1495.69 1118.48,1487.71"/>
    <poly id="174534306" type="building.yes" color="255,230,230" fill="1" layer="-1.00" shape="1210.27,1562.86 1274.26,1495.86 1266.30,1488.30 1202.30,1555.30 1210.27,1562.86"/>
    <poly id="174534307" type="building.yes" color="255,230,230" fill="1" layer="-1.00" shape="1183.59,1528.89 1178.96,1524.42 1226.82,1475.16 1246.61,1454.79 1255.30,1463.18 1187.65,1532.80 1185.58,1530.80 1183.59,1528.89"/>
    <poly id="174534308" type="building.yes" color="255,230,230" fill="1" layer="-1.00" shape="1133.15,1503.42 1176.66,1549.91 1191.10,1536.48 1187.65,1532.80 1185.58,1530.80 1183.59,1528.89 1178.25,1533.84 1142.03,1495.16 1133.15,1503.42"/>
    <poly id="174534309" type="building.yes" color="255,230,230" fill="1" layer="-1.00" shape="1255.30,1463.18 1256.79,1465.52 1262.30,1460.37 1265.62,1443.73 1180.31,1428.70 1178.31,1441.64 1249.11,1452.45 1248.75,1454.72 1246.61,1454.79 1255.30,1463.18"/>
    <poly id="177921853" type="tourism.attraction" color="207,245,201" fill="1" layer="-2.00" shape="877.21,1109.42 952.33,1151.74 956.74,1152.50 959.43,1150.59 962.69,1143.88 965.39,1128.26 954.01,1124.49 940.73,1119.05 925.86,1111.24 914.51,1105.84 903.07,1100.52 887.72,1092.72 884.58,1097.77 877.21,1109.42"/>
    <poly id="184166683" type="amenity.theatre" color="237,199,199" fill="1" layer="-1.00" shape="652.93,1200.52 682.83,1232.69 734.86,1254.53 742.35,1249.29 725.87,1227.03 720.62,1230.69 693.06,1194.37 695.14,1192.60 681.60,1175.55 676.78,1177.22 671.00,1180.31 666.88,1182.92 663.87,1185.56 659.71,1189.43 657.22,1192.63 655.68,1195.14 652.93,1200.52"/>
    <poly id="184166683#1" type="building.yes" color="255,230,230" fill="1" layer="-1.00" shape="652.93,1200.52 682.83,1232.69 734.86,1254.53 742.35,1249.29 725.87,1227.03 720.62,1230.69 693.06,1194.37 695.14,1192.60 681.60,1175.55 676.78,1177.22 671.00,1180.31 666.88,1182.92 663.87,1185.56 659.71,1189.43 657.22,1192.63 655.68,1195.14 652.93,1200.52"/>
    <poly id="185635222" type="building.office" color="255,230,230" fill="1" layer="-1.00" shape="1276.78,1236.93 1279.19,1232.17 1286.01,1218.28 1296.85,1223.20 1288.63,1241.80 1276.78,1236.93"/>
    <poly id="186822217" type="amenity.parking" color="184,184,179" fill="1" layer="-1.00" shape="1774.48,734.09 1761.74,760.67 1831.15,796.42 1841.68,775.43 1840.02,766.96 1774.48,734.09"/>
    <poly id="186829715" type="landuse.grass" color="194,194,130" fill="1" layer="-3.00" shape="1762.85,727.56 1766.65,700.29 1779.05,691.25 1762.85,727.56"/>
    <poly id="188110102" type="amenity.university" color="237,199,199" fill="1" layer="-1.00" shape="815.29,432.47 816.44,416.37 837.68,418.90 836.25,424.98 829.89,424.77 829.55,428.84 837.94,429.53 836.72,435.62 829.58,434.57 815.29,432.47"/>
    <poly id="194350315" type="amenity.university" color="237,199,199" fill="1" layer="-1.00" shape="760.33,1166.69 759.03,1168.05 746.92,1181.99 759.13,1190.98 755.49,1195.55 751.11,1191.73 740.32,1205.76 757.61,1218.31 768.07,1205.78 763.62,1201.62 766.81,1198.45 779.49,1207.58 762.60,1228.69 728.70,1203.94 718.53,1216.00 727.39,1221.19 729.95,1218.01 755.37,1236.63 759.51,1233.36 765.99,1237.79 760.43,1244.76 754.63,1240.28 748.59,1247.51 760.45,1257.20 777.35,1236.57 772.06,1231.24 790.34,1209.17 800.96,1218.56 771.97,1255.63 777.04,1258.95 772.52,1265.11 785.02,1274.04 790.24,1264.55 784.97,1258.78 795.35,1244.92 802.68,1249.61 808.09,1242.76 801.96,1236.53 811.54,1225.22 814.50,1227.04 823.22,1215.64 760.33,1166.69"/>
    <poly id="194350315#1" type="building.school" color="255,230,230" fill="1" layer="-1.00" shape="760.33,1166.69 759.03,1168.05 746.92,1181.99 759.13,1190.98 755.49,1195.55 751.11,1191.73 740.32,1205.76 757.61,1218.31 768.07,1205.78 763.62,1201.62 766.81,1198.45 779.49,1207.58 762.60,1228.69 728.70,1203.94 718.53,1216.00 727.39,1221.19 729.95,1218.01 755.37,1236.63 759.51,1233.36 765.99,1237.79 760.43,1244.76 754.63,1240.28 748.59,1247.51 760.45,1257.20 777.35,1236.57 772.06,1231.24 790.34,1209.17 800.96,1218.56 771.97,1255.63 777.04,1258.95 772.52,1265.11 785.02,1274.04 790.24,1264.55 784.97,1258.78 795.35,1244.92 802.68,1249.61 808.09,1242.76 801.96,1236.53 811.54,1225.22 814.50,1227.04 823.22,1215.64 760.33,1166.69"/>
    <poly id="194611262" type="amenity.school" color="237,199,199" fill="1" layer="-1.00" shape="765.75,978.04 773.86,942.32 825.45,956.49 822.69,965.80 788.94,957.33 783.02,982.68 765.75,978.04"/>
    <poly id="202291021" type="building.yes" color="255,230,230" fill="1" layer="-1.00" shape="993.95,471.89 995.46,464.23 997.68,464.79 999.26,456.81 1007.05,458.42 1006.47,461.36 1007.53,461.59 1006.09,468.88 1005.95,468.86 1003.60,468.38 1002.57,473.58 996.08,472.31 993.95,471.89"/>
    <poly id="202291026" type="building.yes" color="255,230,230" fill="1" layer="-1.00" shape="998.41,494.32 1001.50,494.53 1001.31,503.46 1002.43,504.59 1015.67,504.99 1015.19,518.09 1008.79,517.99 1008.79,517.89 1002.15,517.64 1002.14,517.78 996.11,517.56 996.38,501.78 998.41,494.32"/>
    <poly id="202291027" type="building.yes" color="255,230,230" fill="1" layer="-1.00" shape="973.45,497.12 966.49,495.75 960.10,494.50 957.40,508.69 956.65,508.54 956.71,509.49 957.23,509.59 956.03,515.90 966.26,516.21 967.99,516.27 967.99,516.43 971.28,516.51 971.29,516.38 972.86,516.41 973.02,512.02 973.23,505.51 973.38,499.48 973.45,497.12"/>
    <poly id="202291028" type="building.yes" color="255,230,230" fill="1" layer="-1.00" shape="973.56,487.21 968.44,486.20 968.23,486.90 965.01,486.27 963.85,487.02 963.33,489.59 964.19,490.64 967.37,491.26 966.49,495.75 973.45,497.12 977.57,497.92 982.18,498.84 984.37,487.68 980.01,486.81 980.09,486.45 973.95,485.24 973.56,487.21"/>
    <poly id="202291030" type="building.yes" color="255,230,230" fill="1" layer="-1.00" shape="997.91,434.80 992.82,433.57 993.37,431.05 990.70,430.66 985.96,429.64 985.34,428.98 986.23,424.37 987.31,423.61 988.16,423.76 990.57,412.65 1005.71,416.01 1003.25,427.31 1009.06,428.60 1007.52,435.70 998.15,433.63 997.91,434.80"/>
    <poly id="202291049" type="building.yes" color="255,230,230" fill="1" layer="-1.00" shape="977.57,497.92 977.24,499.60 973.38,499.48 973.45,497.12 977.57,497.92"/>
    <poly id="202291050" type="building.yes" color="255,230,230" fill="1" layer="-1.00" shape="1030.80,450.04 1028.15,460.58 1010.41,456.10 1013.08,445.58 1030.80,450.04"/>
    <poly id="202291052" type="building.yes" color="255,230,230" fill="1" layer="-1.00" shape="1065.16,461.95 1065.50,460.45 1075.81,461.53 1075.64,463.05 1065.16,461.95"/>
    <poly id="202291061" type="building.yes" color="255,230,230" fill="1" layer="-1.00" shape="1040.42,498.53 1040.88,492.22 1036.50,491.91 1036.05,498.21 1040.42,498.53"/>
    <poly id="202291065" type="building.yes" color="255,230,230" fill="1" layer="-1.00" shape="1092.67,489.82 1092.49,495.89 1071.04,494.34 1071.49,488.28 1081.44,488.95 1092.67,489.82"/>
    <poly id="202291072" type="building.yes" color="255,230,230" fill="1" layer="-1.00" shape="1088.75,520.30 1085.11,520.44 1085.16,509.10 1089.07,509.07 1088.75,520.30"/>
    <poly id="202291076" type="building.yes" color="255,230,230" fill="1" layer="-1.00" shape="1049.55,428.80 1044.34,450.38 1032.13,447.38 1034.32,438.08 1032.86,437.74 1035.74,425.55 1049.55,428.80"/>
    <poly id="202291078" type="building.yes" color="255,230,230" fill="1" layer="-1.00" shape="1072.02,506.89 1065.05,506.86 1065.11,497.98 1059.24,497.30 1059.22,498.29 1058.83,519.69 1072.03,520.20 1072.02,506.89"/>
    <poly id="202291080" type="building.yes" color="255,230,230" fill="1" layer="-1.00" shape="973.02,512.02 973.23,505.51 975.27,505.56 975.94,506.37 975.84,509.68 974.83,512.08 973.02,512.02"/>
    <poly id="202291083" type="building.yes" color="255,230,230" fill="1" layer="-1.00" shape="1102.33,500.86 1098.23,500.74 1098.19,496.29 1092.49,495.89 1092.67,489.82 1102.84,490.55 1102.33,500.86"/>
    <poly id="202291084" type="building.yes" color="255,230,230" fill="1" layer="-1.00" shape="1053.27,479.18 1061.30,479.64 1064.63,464.31 1042.23,463.08 1041.53,478.49 1049.38,478.95 1053.27,479.18"/>
    <poly id="202291085" type="building.yes" color="255,230,230" fill="1" layer="-1.00" shape="1039.30,519.26 1018.39,518.31 1019.49,493.14 1025.22,493.52 1024.65,506.33 1039.95,507.21 1039.30,519.26"/>
    <poly id="202291088" type="building.yes" color="255,230,230" fill="1" layer="-1.00" shape="996.08,472.31 994.00,482.91 967.27,477.66 968.62,470.72 969.82,470.97 970.55,467.26 993.95,471.89 996.08,472.31"/>
    <poly id="202291090" type="building.yes" color="255,230,230" fill="1" layer="-1.00" shape="998.17,448.79 997.00,453.60 971.12,447.66 973.67,436.21 987.86,439.45 986.25,446.07 998.17,448.79"/>
    <poly id="202291091" type="building.yes" color="255,230,230" fill="1" layer="-1.00" shape="1104.17,464.53 1075.81,461.53 1075.64,463.05 1075.22,466.70 1081.40,467.76 1097.99,469.54 1097.70,476.36 1103.49,477.47 1104.17,464.53"/>
    <poly id="202291094" type="amenity.school" color="237,199,199" fill="1" layer="-1.00" shape="1059.22,498.29 1054.33,498.19 1054.05,511.31 1047.34,511.16 1048.03,498.54 1040.42,498.53 1039.95,507.21 1039.30,519.26 1058.83,519.69 1059.22,498.29"/>
    <poly id="202291094#1" type="building.yes" color="255,230,230" fill="1" layer="-1.00" shape="1059.22,498.29 1054.33,498.19 1054.05,511.31 1047.34,511.16 1048.03,498.54 1040.42,498.53 1039.95,507.21 1039.30,519.26 1058.83,519.69 1059.22,498.29"/>
    <poly id="202291096" type="building.yes" color="255,230,230" fill="1" layer="-1.00" shape="1007.43,481.81 1006.57,487.69 1017.40,489.40 1019.76,473.39 1008.93,471.63 1007.90,478.62 1006.12,478.35 1005.64,481.59 1007.43,481.81"/>
    <poly id="202291097" type="building.yes" color="255,230,230" fill="1" layer="-1.00" shape="1103.41,478.98 1102.84,490.55 1092.67,489.82 1081.44,488.95 1081.78,484.28 1090.16,484.88 1091.68,482.95 1091.98,478.65 1097.56,478.19 1103.41,478.98"/>
    <poly id="202291098" type="building.yes" color="255,230,230" fill="1" layer="-1.00" shape="970.48,449.98 966.09,466.37 970.55,467.26 993.95,471.89 995.46,464.23 984.43,461.41 983.46,460.09 985.28,453.25 982.43,452.46 970.48,449.98"/>
    <poly id="202291101" type="building.yes" color="255,230,230" fill="1" layer="-1.00" shape="1095.99,500.66 1098.23,500.74 1102.33,500.86 1101.59,506.82 1101.69,519.78 1088.75,520.30 1089.07,509.07 1096.17,508.76 1095.96,504.33 1095.99,500.66"/>
    <poly id="202291103" type="building.yes" color="255,230,230" fill="1" layer="-1.00" shape="1085.11,520.44 1081.58,522.35 1072.04,521.60 1072.03,520.20 1072.02,506.89 1078.81,506.93 1078.84,503.93 1084.33,503.95 1084.33,505.84 1085.18,505.85 1085.16,509.10 1085.11,520.44"/>
    <poly id="202291104" type="building.yes" color="255,230,230" fill="1" layer="-1.00" shape="1094.63,442.54 1089.08,442.06 1090.10,434.06 1107.41,438.44 1105.46,455.07 1104.75,461.28 1097.71,460.47 1098.63,452.43 1093.71,451.98 1094.63,442.54"/>
    <poly id="202294638" type="building.yes" color="255,230,230" fill="1" layer="-1.00" shape="966.91,719.70 968.77,720.76 972.63,712.00 975.98,705.39 971.16,702.37 975.57,693.65 982.09,697.84 976.30,710.11 967.96,727.29 963.89,724.98 966.91,719.70"/>
    <poly id="202294639" type="building.yes" color="255,230,230" fill="1" layer="-1.00" shape="989.56,788.31 992.43,782.39 995.84,775.38 999.84,770.00 1001.91,771.45 1006.39,763.33 1013.78,766.90 1001.62,792.47 998.85,792.94 989.49,788.44 989.56,788.31"/>
    <poly id="202294640" type="building.yes" color="255,230,230" fill="1" layer="-1.00" shape="899.40,763.60 905.72,753.30 908.53,755.05 908.46,756.17 919.81,762.23 913.83,771.88 910.43,778.19 904.42,774.76 907.82,768.77 899.40,763.60"/>
    <poly id="202294641" type="building.yes" color="255,230,230" fill="1" layer="-1.00" shape="922.57,755.66 926.63,757.91 929.01,758.90 935.48,762.50 950.63,733.97 951.03,733.21 944.75,729.89 933.30,750.89 929.13,748.80 926.83,747.64 922.57,755.66"/>
    <poly id="202294642" type="building.yes" color="255,230,230" fill="1" layer="-1.00" shape="1031.19,930.30 1026.98,938.07 1027.13,938.19 1023.48,943.34 1020.24,944.22 1001.04,931.81 1009.31,920.15 1016.61,925.33 1020.54,919.78 1032.80,927.56 1031.19,930.30"/>
    <poly id="202294643" type="building.yes" color="255,230,230" fill="1" layer="-1.00" shape="920.21,874.94 912.69,869.55 929.82,836.96 929.92,837.02 930.53,835.89 933.40,837.39 930.67,842.55 934.11,844.37 926.79,858.20 930.61,860.03 928.18,863.26 920.21,874.94"/>
    <poly id="202294644" type="building.yes" color="255,230,230" fill="1" layer="-1.00" shape="1021.55,807.78 1018.36,805.47 1007.21,797.48 1006.48,795.29 1010.19,787.38 1020.02,794.39 1017.63,797.73 1040.25,813.93 1036.71,818.21 1029.11,813.07 1021.55,807.78"/>
    <poly id="202294645" type="building.yes" color="255,230,230" fill="1" layer="-1.00" shape="943.91,807.10 936.20,801.74 932.71,807.80 941.66,813.93 938.51,820.19 945.00,822.97 949.40,812.88 945.44,810.83 946.52,808.77 946.63,808.56 946.49,808.49 943.91,807.10"/>
    <poly id="202294646" type="building.yes" color="255,230,230" fill="1" layer="-1.00" shape="1088.01,839.77 1080.82,850.90 1062.90,839.29 1063.52,838.34 1050.50,829.91 1045.70,824.82 1048.61,820.43 1056.95,824.86 1071.99,836.67 1073.77,834.40 1076.17,830.41 1088.01,839.77"/>
    <poly id="202294647" type="building.yes" color="255,230,230" fill="1" layer="-1.00" shape="850.68,830.39 857.07,818.07 859.98,812.28 863.17,806.04 871.26,810.92 863.89,824.63 866.33,826.17 865.79,827.05 866.05,827.22 860.10,835.60 859.86,835.69 850.68,830.39"/>
    <poly id="202294648" type="building.yes" color="255,230,230" fill="1" layer="-1.00" shape="917.71,711.85 921.94,704.09 927.02,695.23 939.78,672.14 959.18,683.79 952.81,694.19 944.23,689.47 940.03,696.89 934.42,707.08 936.46,708.17 930.63,718.89 917.71,711.85"/>
    <poly id="202294649" type="building.yes" color="255,230,230" fill="1" layer="-1.00" shape="998.96,819.33 994.63,817.31 991.54,823.48 1000.82,828.87 1022.88,843.86 1022.70,844.11 1039.87,855.31 1043.18,850.26 1018.04,832.68 1013.10,829.16 999.08,819.33 998.96,819.33"/>
    <poly id="202294650" type="building.yes" color="255,230,230" fill="1" layer="-1.00" shape="1016.98,823.05 1015.64,825.17 1013.10,829.16 999.08,819.33 1001.33,814.71 1004.69,806.15 1005.13,805.76 1006.29,805.69 1007.48,805.70 1007.94,805.91 1015.51,810.85 1010.25,819.01 1016.98,823.05"/>
    <poly id="202294651" type="building.yes" color="255,230,230" fill="1" layer="-1.00" shape="975.57,693.65 971.16,702.37 969.04,701.06 970.26,698.53 970.15,698.42 965.69,696.16 956.85,713.60 949.01,709.35 955.85,696.14 962.15,685.49 971.01,690.73 973.30,692.21 975.57,693.65"/>
    <poly id="202294652" type="building.yes" color="255,230,230" fill="1" layer="-1.00" shape="903.29,862.00 910.55,849.02 914.54,841.64 910.94,839.66 909.08,843.03 908.98,842.97 904.20,839.99 902.49,838.79 891.89,855.71 898.30,859.70 898.62,859.66 901.89,861.93 903.29,862.00"/>
    <poly id="202294652#1" type="historic.building" color="128,255,128" fill="1" layer="-1.00" shape="903.29,862.00 910.55,849.02 914.54,841.64 910.94,839.66 909.08,843.03 908.98,842.97 904.20,839.99 902.49,838.79 891.89,855.71 898.30,859.70 898.62,859.66 901.89,861.93 903.29,862.00"/>
    <poly id="202294653" type="amenity.place_of_worship" color="237,199,199" fill="1" layer="-1.00" shape="1143.20,935.06 1146.04,934.33 1146.47,935.96 1143.85,936.63 1143.31,939.60 1144.86,940.61 1143.94,942.01 1142.39,941.00 1139.86,942.22 1140.17,944.54 1138.80,944.73 1138.49,942.44 1135.59,941.67 1135.27,943.25 1133.96,942.95 1134.28,941.24 1132.05,940.75 1129.15,942.67 1129.87,943.71 1129.64,943.91 1130.28,944.92 1129.27,945.69 1128.85,945.12 1126.57,946.26 1121.84,944.93 1121.29,946.46 1120.45,946.60 1119.81,946.31 1117.76,947.88 1114.46,947.38 1114.21,948.97 1113.03,948.75 1111.28,957.41 1110.83,957.27 1110.59,958.05 1109.97,957.85 1109.43,959.56 1107.33,958.91 1107.67,957.85 1101.28,956.00 1100.81,957.65 1098.75,957.05 1099.23,955.42 1097.59,954.95 1098.06,953.31 1098.57,953.47 1100.29,945.84 1098.37,945.41 1098.75,943.75 1100.40,944.12 1100.61,943.23 1094.93,941.76 1094.58,943.28 1092.95,942.90 1093.29,941.37 1085.29,939.44 1084.93,941.10 1083.18,940.72 1083.53,939.07 1076.98,937.88 1076.67,939.54 1074.86,939.20 1075.08,937.44 1072.80,936.90 1073.13,935.70 1075.01,936.15 1076.69,929.30 1074.41,928.74 1074.91,927.30 1077.12,927.81 1078.94,920.32 1076.40,919.79 1076.75,918.20 1079.35,918.72 1080.84,911.18 1078.61,910.81 1078.82,909.49 1081.06,909.85 1081.42,907.73 1083.23,908.02 1083.07,908.94 1092.08,911.12 1092.66,908.71 1094.26,909.10 1093.97,910.35 1095.87,910.81 1095.48,912.43 1100.59,913.64 1100.97,912.10 1102.48,912.46 1102.11,914.02 1108.48,915.55 1108.90,913.86 1110.31,914.21 1109.89,915.92 1116.96,917.41 1117.39,915.72 1118.80,916.08 1118.38,917.78 1123.05,918.95 1123.39,917.60 1124.90,917.98 1124.36,920.08 1125.55,920.96 1126.19,919.27 1127.87,919.92 1127.21,921.80 1130.12,922.82 1130.78,921.59 1132.52,922.51 1132.10,923.88 1133.27,925.33 1134.90,924.82 1135.20,925.64 1133.37,926.26 1133.27,927.22 1134.31,927.45 1133.94,929.15 1136.56,929.72 1136.98,927.84 1138.55,928.19 1138.14,930.08 1140.82,930.68 1142.02,929.16 1143.75,930.01 1142.40,932.03 1143.20,935.06"/>