<?xml version="1.0" encoding="UTF-8"?>

<!-- generated on 12/19/17 02:12:43 by SUMO duarouter Version 0.31.0
<?xml version="1.0" encoding="UTF-8"?>

<configuration xmlns:xsi="http://www.w3.org/2001/XMLSchema-instance" xsi:noNamespaceSchemaLocation="http://sumo.dlr.de/xsd/duarouterConfiguration.xsd">

    <input>
        <net-file value="osm.net.xml"/>
        <route-files value="osm.passenger.trips.xml"/>
    </input>

    <output>
        <output-file value="osm.passenger.rou.xml"/>
    </output>

    <processing>
        <ignore-errors value="true"/>
    </processing>

    <time>
        <begin value="0"/>
        <end value="1000.0"/>
    </time>

    <report>
        <no-warnings value="true"/>
        <no-step-log value="true"/>
    </report>

</configuration>
-->

<routes xmlns:xsi="http://www.w3.org/2001/XMLSchema-instance" xsi:noNamespaceSchemaLocation="http://sumo.dlr.de/xsd/routes_file.xsd">
    <vType id="passenger" speedFactor="normc(1.00,0.10,0.20,2.00)" vClass="passenger"/>
    <vehicle id="veh0" type="passenger" depart="0.00" departLane="best">
        <route edges="343528767#0 343528767#1 343528767#2 7976631#1 7976631#2 -338025195#1 -338025195#0 338025192#0 338025192#1 7976486#0 7976486#1 171984639#0 171984639#1 302113472 44356590 26598924#0 26598924#1 -497860197#1 -497860197#0 31647681 42956774 186736235#0 186736235#3 186736235#4 186736235#5 -186736235#5"/>
    </vehicle>
    <vehicle id="veh1" type="passenger" depart="1.16" departLane="best">
        <route edges="108297381 -108297381 407497545#1 464696418#0 377851569#0 377851569#1 377851568 7933944 7932712#1 7932712#2 7932712#3 372299409#0 372299409#1 372299410#0 372299410#1 404917414 404917415#0 55488299 52739335#0 186822215#0 24283694 55488308 190629953#0 190629953#1 -45985481#2 -45985481#0"/>
    </vehicle>
    <vehicle id="veh3" type="passenger" depart="3.49" departLane="best">
        <route edges="55425343 -55425343 -266610220 404917414 404917415#0 55488299 52739335#0 186822215#0 24283694 413528724 377882536#0 377882536#1 363818322 -25199500#1 -25199500#0 -302113483#0"/>
    </vehicle>
    <vehicle id="veh5" type="passenger" depart="5.81" departLane="best">
        <route edges="-55488299 55488299 52739335#0 186822215#0 24283694 55488308 190629953#0 190629953#1 7936613#0 7936613#1 363520361 113838783#0 113838783#1 243065797 302113464 23582606#0 23582606#1 23582606#2 23582606#3 23582606#4 359428795 302299788#1 411913364#0 55556740#0 363255022 363159274 210597392#0 210597392#1 359110260#1 23893983 24283548#0 24283548#1 24283548#2 24283548#3 24283574#0 24283574#1 24283552#0 24283552#1 24283559#1 24283559#2"/>
    </vehicle>
    <vehicle id="veh6" type="passenger" depart="6.98" departLane="best">
        <route edges="-186736235#2 117297986#1 37190757 302113464 23582606#0 23582606#1 23582606#2 23582606#3 23582606#4 359428795 302299788#1 411913364#0 55556740#0 363255022 363159274 -363159274 466395278 -43707627"/>
    </vehicle>
    <vehicle id="veh7" type="passenger" depart="8.14" departLane="best">
        <route edges="359428795 302299788#1 411913364#0 55556740#0 363255022 363159274 210597392#0 210597392#1 7976593#1 338025195#0 338025195#1 -38215485#1 -38215485#0 177921034 177921033 26616191#0"/>
    </vehicle>
    <vehicle id="veh8" type="passenger" depart="9.30" departLane="best">
        <route edges="-55556740#1 55556740#0 363255022 363159274 210597392#0 210597392#1 7976486#0 7976486#1 171984639#0 171984639#1 302113472"/>
    </vehicle>
    <vehicle id="veh9" type="passenger" depart="10.47" departLane="best">
        <route edges="43707055#1 43707055#2 -7976448#1 -7976448#0 44356591#0 44356591#1 44356591#2 411909327#0 411909327#1 7936457 113838783#0 113838783#1 243065797 363554496 363554495 31647681 42956774 117297986#1 -117297986#1"/>
    </vehicle>
    <vehicle id="veh10" type="passenger" depart="11.63" departLane="best">
        <route edges="43707023 -343517468#0 171984639#0 171984639#1 256854467 -56725337#3 -56725337#2 -56725337#1 -56725337#0 -58064599#1 -58064599#0 -7976448#1 -7976448#0 44356591#0 44356591#1 44356591#2 411909327#0 411909327#1 7936314#0 7936314#1 411911880 26598858#1 7936613#1 363520361"/>
    </vehicle>
    <vehicle id="veh11" type="passenger" depart="12.79" departLane="best">
        <route edges="186736235#0 -186736235#2 117297986#1 37190757 302113464 23582606#0 23582606#1 23582606#2 23582606#3 23582606#4 359428795 302299788#1 411913364#0 55556740#0 363255022 363159274 210597392#0 210597392#1 7976593#1 338025195#0 338025195#1 299836710 7976631#0 -343528767#2 -343528767#1 -343528767#0"/>
    </vehicle>
    <vehicle id="veh12" type="passenger" depart="13.95" departLane="best">
        <route edges="7936613#0 7936613#1 363520361 113838783#0 113838783#1 243065797 302113464 23582606#0 23582606#1 23582606#2 23582606#3 23582606#4 359428795 302299788#1 411913364#0 37153661 325146681#0 325146681#1 13347875#0 13347875#1 13347875#2"/>
    </vehicle>
    <vehicle id="veh13" type="passenger" depart="15.12" departLane="best">
        <route edges="-25199500#3 -25199500#2 -25199500#1 -25199500#0 302113483#1 302113468 10529189#0 24283694 55488308 190629953#0 190629953#1 7936613#0 7936613#1 363520361 113838783#0 113838783#1 243065797 302113464 23582606#0 23582606#1 23582606#2 23582606#3 23582606#4 359428795 302299788#1 411913364#0 55556740#0 363255022 363159274 210597392#0 210597392#1 359110260#1 23893983 -277741511 -302299800#1 -302299800#0"/>
    </vehicle>
    <vehicle id="veh15" type="passenger" depart="17.44" departLane="best">
        <route edges="43707055#0 43707055#1 43707055#2 -7976448#1 -7976448#0 44356591#0 44356591#1 44356591#2 411909327#0 411909327#1 7936314#0 7936314#1 411911880 286078256#0 7936303#0 7936303#1 52698705#0 -55488299 -404917415#1 -404917414 -372299410#1 372299410#1"/>
    </vehicle>
    <vehicle id="veh16" type="passenger" depart="18.61" departLane="best">
        <route edges="306097794 177921038 177921036#0 177921036#1 -177921034 38215485#0 38215485#1 -338025195#1 -338025195#0 338025192#0 338025192#1 7976486#0"/>
    </vehicle>
    <vehicle id="veh17" type="passenger" depart="19.77" departLane="best">
        <route edges="23582606#4 359428795 302299788#1 411913364#0 37153661 325146681#0 325146681#1 13347875#0 13347875#1 13347875#2 411914875 309482435 -108489923#1 377851568 10508024#0 27173072"/>
    </vehicle>
    <vehicle id="veh18" type="passenger" depart="20.93" departLane="best">
        <route edges="439842578 -439842578 7976495#0 7976495#1 171984641#0 359110260#1 23893983 24283548#0 24283548#1 24283548#2 24283548#3 24283574#0 -231374322#1 -231374322#0 31579388#1"/>
    </vehicle>
    <vehicle id="veh19" type="passenger" depart="22.10" departLane="best">
        <route edges="45985481#0 45985481#1 7936346#0 7936303#0 7936303#1 7936303#2 186822211#0 186822215#0 24283694 413528724 377882536#0 377882536#1 363818322 -25199500#1 278314967"/>
    </vehicle>
    <vehicle id="veh20" type="passenger" depart="23.26" departLane="best">
        <route edges="37590015 -302113468 -334883453 -291193537 291193537 334883453 302113468 10529189#0 24283694 55488308 190629953#0 190629953#1 7936613#0 7936613#1 363520361 113838783#0 113838783#1 243065797 302113464 23582606#0 23582606#1 23582606#2 23582606#3 23582606#4 359428795 302299788#1 411913364#0 37153661 325146681#0 325146681#1 13347875#0 13347875#1 13347875#2 411914875 309482435 -264129023 23893689 411257679#2 -23893643#2 -23893643#1"/>
    </vehicle>
    <vehicle id="veh21" type="passenger" depart="24.42" departLane="best">
        <route edges="-58064599#0 -7976448#1 -7976448#0 44356591#0 44356591#1 44356591#2 411909327#0 411909327#1 7936457 10511797#0 10511797#1 10511797#2"/>
    </vehicle>
    <vehicle id="veh22" type="passenger" depart="25.58" departLane="best">
        <route edges="-25199500#0 302113483#1 302113468 10529189#0 24283694 55488308 190629953#0 190629953#1 7936346#0 7936303#0 7936303#1 52698705#0 377879487#0 377879487#1 -46233529"/>
    </vehicle>
    <vehicle id="veh23" type="passenger" depart="26.75" departLane="best">
        <route edges="-27173072 10508024#1 10508024#2 10508024#3 24283666 23893810#0 23893810#1 23893810#2 411908606 7936457 10511797#0"/>
    </vehicle>
    <vehicle id="veh24" type="passenger" depart="27.91" departLane="best">
        <route edges="343528767#0 343528767#1 343528767#2 7976631#1 7976631#2 -338025195#1 -338025195#0 338025192#0 338025192#1 7976486#0 7976486#1 171984639#0 171984639#1 302113472 44356590 26598924#0 26598924#1 -497860197#1 -497860197#0 31647681 -44194781#3 186736159"/>
    </vehicle>
    <vehicle id="veh25" type="passenger" depart="29.07" departLane="best">
        <route edges="231374322#1 24283574#1 24283552#0 24283552#1 24283559#1 24283559#2 37196673#0 37196673#1 23893976 -359110260#1 7976486#0 7976486#1 171984639#0 171984639#1 302113472 44356590 26598924#0 26598924#1 31622095 -44194781#0"/>
    </vehicle>
    <vehicle id="veh26" type="passenger" depart="30.24" departLane="best">
        <route edges="-38215485#0 23893687#0 23893687#2 23893687#3 309482435 -108489923#1 377851568 7933944 7932712#1 7932712#2 7932712#3 372299409#0 372299409#1 372299410#0"/>
    </vehicle>
    <vehicle id="veh27" type="passenger" depart="31.40" departLane="best">
        <route edges="-364789855 24283552#0 24283552#1 24283559#1 24283559#2 37196673#0 37196673#1 23893976 -359110260#1 7976486#0 7976486#1 171984639#0 171984639#1 302113472 44356590 26598924#0 26598924#1 -497860197#1 -497860197#0 31647681 42956774 186736235#0 186736235#3 186736235#4 186736235#5 186736235#7"/>
    </vehicle>
    <vehicle id="veh31" type="passenger" depart="36.05" departLane="best">
        <route edges="177921034 -177921034 38215485#0 38215485#1 -338025195#1 -338025195#0 338025192#0 338025192#1 7976486#0 7976486#1 171984639#0 171984639#1 256854467 -56725337#3 -56725337#2 -56725337#1 -56725337#0 -58064599#1 -58064599#0 -7976448#1"/>
    </vehicle>
    <vehicle id="veh32" type="passenger" depart="37.21" departLane="best">
        <route edges="-497860197#0 26598953 -56725337#1 -56725337#0 27173012 522865607 522865605 359428795 302299788#1 411913364#0 37153661 325146681#0 325146681#1 13347875#0 13347875#1 13347875#2 411914875 309482435 -108489923#1 377851568 7933944 7934417"/>
    </vehicle>
    <vehicle id="veh33" type="passenger" depart="38.38" departLane="best">
        <route edges="464696418#0 377851569#0 377851569#1 377851568 7933944 7932712#1 7932712#2 7932712#3 372299409#0 372299409#1 38215231#0 38215231#1 372299411#0 372299411#1 372299411#2 23893728#0 23893728#1 108487694 117297985#0"/>
    </vehicle>
    <vehicle id="veh34" type="passenger" depart="39.54" departLane="best">
        <route edges="58064599#0 58064599#1 56725337#0 56725337#1 56725337#2 56725337#3 286078255 44356590 -525510189 -439842578 7976495#0 7976495#1 171984641#0 -210597392#1 -210597392#0 -363159274 -363255022 23893849#0 23893849#1"/>
    </vehicle>
    <vehicle id="veh35" type="passenger" depart="40.70" departLane="best">
        <route edges="10508024#1 10508024#2 10508024#3 24283666 79816479#0 79816479#1 79816479#2 118721964#0 118721964#2 325146681#0 325146681#1 13347875#0 13347875#1 13347875#2 411914875 309482435 -264129023 -56019866"/>
    </vehicle>
    <vehicle id="veh36" type="passenger" depart="41.86" departLane="best">
        <route edges="31579388#0 231374322#0 231374322#1 24283574#1 24283552#0 24283552#1 24283559#1 24283559#2 37196673#0 37196673#1 23893976 -359110260#1 7976486#0 7976486#1 171984639#0 171984639#1 256854467 -56725337#3 -56725337#2 -56725337#1 -56725337#0 -58064599#1"/>
    </vehicle>
    <vehicle id="veh37" type="passenger" depart="43.03" departLane="best">
        <route edges="31620416#1 -45763754#0 -497860197#1 -497860197#0 26598953 -56725337#1 -56725337#0 -58064599#1 -58064599#0 -7976448#1 -7976448#0 44356591#0 44356591#1 44356591#2 411909327#0 411909327#1 7936314#0 7936314#1 411911880 286078256#0 7936303#0 7936303#1 52698705#0 -55488299 55488299"/>
    </vehicle>
    <vehicle id="veh38" type="passenger" depart="44.19" departLane="best">
        <route edges="23893754#2 23893754#3 23893754#4 343547062#0 24283666 23893810#0 23893810#1 23893810#2 411908606 7936457 113838783#0 113838783#1 243065797 302113464 7976448#0 7976448#1 58064599#0 58064599#1 56725337#0 56725337#1 56725337#2 56725337#3 286078255 44356590 31620416#1 -45763754#0"/>
    </vehicle>
    <vehicle id="veh39" type="passenger" depart="45.35" departLane="best">
        <route edges="-25199500#3 -25199500#2 -25199500#1 -25199500#0 302113483#1 302113468 10529189#0 24283694 55488308 190629953#0 190629953#1 7936613#0 7936613#1 363520361 113838783#0 113838783#1 243065797 302113464 23582606#0 23582606#1 23582606#2 23582606#3 23582606#4 359428795 302299788#1 411913364#0 37153661 325146681#0 325146681#1 13347875#0 13347875#1 13347875#2 411914875 309482435 -264129023 23893689 411257679#2 -23893643#2"/>
    </vehicle>
    <vehicle id="veh40" type="passenger" depart="46.52" departLane="best">
        <route edges="-278314967 -25199500#0 302113483#1 302113468 10529189#0 24283694 55488308 190629953#0 190629953#1 7936613#0 7936613#1 363520361 113838783#0 113838783#1 243065797 302113464 23582606#0 23582606#1 23582606#2 23582606#3 23582606#4 359428795 302299788#1 411913364#0 55556740#0 363255022 31584504#0"/>
    </vehicle>
    <vehicle id="veh42" type="passenger" depart="48.84" departLane="best">
        <route edges="-23893849#1 -23893849#0 363255022 363159274 210597392#0 210597392#1 7976486#0 7976486#1 171984639#0 171984639#1 302113472 44356590 26598924#0 26598924#1 -497860197#1 -497860197#0 31647681 42956774 186736235#0 186736235#3 186736235#4 186736235#5 186736235#7"/>
    </vehicle>
    <vehicle id="veh43" type="passenger" depart="50.01" departLane="best">
        <route edges="79816479#0 79816479#1 46240381#0 46240381#1 338683089#0 338683089#1 44356591#2 411909327#0 411909327#1 7936314#0 7936314#1 411911880 286078256#0 7936303#0 7936303#1 7936303#2 186822211#0 186822215#0 24283694 413528724 377882536#0 377882536#1 363818322 25199500#2 25199500#3"/>
    </vehicle>
    <vehicle id="veh44" type="passenger" depart="51.17" departLane="best">
        <route edges="-113280420 -25199500#1 -25199500#0 302113483#1 302113468 10529189#0 24283694 55488308 190629953#0 190629953#1 7936613#0 7936613#1 363520361 113838783#0 113838783#1 243065797 302113464 23582606#0 23582606#1 23582606#2 23582606#3 23582606#4 359428795 302299788#1 411913364#0 55556740#0 363255022 363159274 210597392#0 210597392#1 359110260#1 23893983 24283548#0 24283548#1 24283548#2 24283548#3 24283574#0 24283574#1 24283552#0 24283552#1 24283559#1 24283559#2 37196673#0"/>
    </vehicle>
    <vehicle id="veh45" type="passenger" depart="52.33" departLane="best">
        <route edges="372299411#1 372299411#2 372299411#3 343547062#0 24283666 23893810#0 23893810#1 23893810#2 411908606 7936314#0 7936314#1 411911880 26598858#1"/>
    </vehicle>
    <vehicle id="veh47" type="passenger" depart="54.66" departLane="best">
        <route edges="-278314967 -25199500#0 302113483#1 302113468 10529189#0 24283694 55488308 190629953#0 190629953#1 7936346#0 7936303#0 7936303#1 52698705#0 -55488299 -404917415#1 -404917414 -372299410#1 -372299410#0 38215231#0 38215231#1 372299411#0 372299411#1 372299411#2 23893728#0"/>
    </vehicle>
    <vehicle id="veh48" type="passenger" depart="55.82" departLane="best">
        <route edges="464696418#0 377851569#0 377851569#1 377851568 10508024#0 10508024#1 10508024#2 10508024#3 24283666 23893810#0 23893810#1 23893810#2 411908606 7936457 113838783#0 113838783#1 243065797 302113464 7976448#0 7976448#1 58064599#0 58064599#1 -58064599#1"/>
    </vehicle>
    <vehicle id="veh49" type="passenger" depart="56.98" departLane="best">
        <route edges="56725337#3 -56725337#3 -56725337#2 -56725337#1 -56725337#0 27173012 522865607 522865605 359428795 302299788#1 411913364#0 37153661 325146681#0 325146681#1 13347875#0 13347875#1 13347875#2 411914875 309482435 -108489923#1 377851568 10508024#0 10508024#1 10508024#2 10508024#3 24283666 79816479#0 79816479#1 46240381#0"/>
    </vehicle>
    <vehicle id="veh51" type="passenger" depart="59.31" departLane="best">
        <route edges="31692369#1 302113472 44356590 -525510189 -439842578 7976495#0 7976495#1 171984641#0 7976593#1 338025195#0 338025195#1 299836710 7976631#0 -343528767#2 -343528767#1 -343528767#0"/>
    </vehicle>
    <vehicle id="veh52" type="passenger" depart="60.47" departLane="best">
        <route edges="411909327#0 411909327#1 7936457 113838783#0 113838783#1 243065797 302113464 7976448#0 7976448#1 58064599#0 58064599#1 56725337#0 56725337#1 56725337#2 56725337#3 286078255 44356590 26598924#0"/>
    </vehicle>
    <vehicle id="veh53" type="passenger" depart="61.63" departLane="best">
        <route edges="-108297381 407497545#1 464696418#0 377851569#0 377851569#1 377851568 7933944 7932712#1 7932712#2 7932712#3 372299409#0 372299409#1 38215231#0 38215231#1 372299411#0 372299411#1 7933104#0 7933104#1 122905764#0"/>
    </vehicle>
    <vehicle id="veh54" type="passenger" depart="62.80" departLane="best">
        <route edges="-186736159 44194781#3 42956774 117297986#1 37190757 302113464 44356591#0 44356591#1 44356591#2 411909327#0 411909327#1 7936314#0 7936314#1 411911880 286078256#0 7936303#0 7936303#1 52698705#0 -55488299 -404917415#1 -404917414 -372299410#1 -372299410#0 38215231#0 38215231#1 372299411#0 372299411#1 7933104#0 7933104#1"/>
    </vehicle>
    <vehicle id="veh55" type="passenger" depart="63.96" departLane="best">
        <route edges="466395276#1 177921854#1 -177921034 38215485#0 38215485#1 -338025195#1 -338025195#0 338025192#0 338025192#1 7976486#0 7976486#1 171984639#0 171984639#1 256854467 -56725337#3 -56725337#2 -56725337#1 -56725337#0 27173012 522865607 43707293"/>
    </vehicle>
    <vehicle id="veh56" type="passenger" depart="65.12" departLane="best">
        <route edges="13347875#2 411914875 309482435 -108489923#1 377851568 7933944 7932712#1 7932712#2 7932712#3 372299409#0 372299409#1 372299410#0 372299410#1 404917414 404917415#0 55488299 52739335#0 186822215#0 24283694 413528724 377882536#0 377882536#1 363818322 -25199500#1 -25199500#0"/>
    </vehicle>
    <vehicle id="veh57" type="passenger" depart="66.29" departLane="best">
        <route edges="466395276#0 466395276#1 177921854#1 -177921034 23893687#0 23893687#2 23893687#3 309482435 -108489923#1 377851568 7933944 7934417"/>
    </vehicle>
    <vehicle id="veh58" type="passenger" depart="67.45" departLane="best">
        <route edges="-25199500#3 -25199500#2 -25199500#1 -25199500#0 302113483#1 302113468 10529189#0 24283694 55488308 190629953#0 190629953#1 7936613#0 7936613#1 363520361 113838783#0 113838783#1 243065797 302113464 23582606#0 23582606#1 23582606#2 23582606#3 23582606#4 359428795 302299788#1 411913364#0 55556740#0 363255022 363159274 210597392#0 210597392#1 359110260#1 23893983 24283548#0 24283548#1 24283548#2 24283548#3 24283574#0 24283574#1 24283552#0 24283552#1 24283552#2 24283528#0 24283528#1 24283528#2 24283528#3 24283528#4"/>
    </vehicle>
    <vehicle id="veh59" type="passenger" depart="68.61" departLane="best">
        <route edges="-24283528#3 -24283528#2 -24283528#1 -24283528#0 24283559#0 24283559#1 24283559#2 37196673#0 37196673#1 23893976 -359110260#1 7976486#0 7976486#1 171984639#0 171984639#1 256854467 -56725337#3 -56725337#2 -56725337#1 -56725337#0 -58064599#1 -58064599#0 -7976448#1 -7976448#0 44356591#0 44356591#1 44356591#2 411909327#0 411909327#1 7936314#0 7936314#1 411911880 286078256#0 7936303#0 7936303#1 7936303#2 186822211#0 186822215#0 24283694 413528724 363472323 37146431 -23287517 377882528"/>
    </vehicle>
    <vehicle id="veh60" type="passenger" depart="69.77" departLane="best">
        <route edges="411911880 26598858#1 7936613#1 363520361 113838783#0 113838783#1 243065797 302113464 23582606#0 23582606#1 23582606#2 23582606#3 23582606#4 359428795 302299788#1 411913364#0 55556740#0 363255022 363159274 210597392#0 210597392#1 359110260#1 23893983 24283548#0 24283548#1 24283548#2 24283548#3 24283574#0 -231374322#1 -231374322#0 -31579388#0"/>
    </vehicle>
    <vehicle id="veh61" type="passenger" depart="70.94" departLane="best">
        <route edges="26616666 404917413 404917415#0 -404917415#1 -404917414 266610215"/>
    </vehicle>
    <vehicle id="veh62" type="passenger" depart="72.10" departLane="best">
        <route edges="10508024#1 10508024#2 10508024#3 24283666 79816479#0 79816479#1 46240381#0 46240381#1"/>
    </vehicle>
    <vehicle id="veh63" type="passenger" depart="73.26" departLane="best">
        <route edges="24283528#2 -24283528#2 -24283528#1 -24283528#0 24283559#0 24283559#1 24283559#2 37196673#0 37196673#1 23893976 -359110260#1 7976486#0 7976486#1 171984639#0 171984639#1 302113472 44356590 26598924#0 26598924#1 31622095 -44194781#0"/>
    </vehicle>
    <vehicle id="veh64" type="passenger" depart="74.43" departLane="best">
        <route edges="306097794 23893687#2 23893687#3 309482435 -108489923#1 377851568 7933944 7932712#1 7932712#2 7932712#3 372299409#0 372299409#1 372299410#0 372299410#1"/>
    </vehicle>
    <vehicle id="veh65" type="passenger" depart="75.59" departLane="best">
        <route edges="-45763754#1 -45763754#0 -497860197#1 -497860197#0 26598953 -56725337#1 -56725337#0 -58064599#1 -58064599#0 -7976448#1 -7976448#0 44356591#0 44356591#1 44356591#2 411909327#0 411909327#1 7936457 113838783#0"/>
    </vehicle>
    <vehicle id="veh66" type="passenger" depart="76.75" departLane="best">
        <route edges="79816479#0 79816479#1 46240381#0 46240381#1 338683089#0 338683089#1 44356591#2 411909327#0 411909327#1 7936457 113838783#0 113838783#1 243065797 363554496 363554495 31647681 -44194781#3 -44194781#2 31622052"/>
    </vehicle>
    <vehicle id="veh67" type="passenger" depart="77.92" departLane="best">
        <route edges="24283559#0 24283559#1 24283559#2 37196673#0 37196673#1 23893976 -359110260#1 7976486#0 7976486#1 171984639#0 171984639#1 256854467 -56725337#3 -56725337#2 -56725337#1 -56725337#0 -58064599#1 -58064599#0 -7976448#1 -7976448#0 44356591#0 44356591#1 44356591#2 411909327#0 411909327#1 7936457 113838783#0 113838783#1 243065797"/>
    </vehicle>
    <vehicle id="veh68" type="passenger" depart="79.08" departLane="best">
        <route edges="-315275163 -7976555 439842578 7976483 389686394#1 31692369#1 256854467 -56725337#3 -56725337#2 -56725337#1 -56725337#0 -58064599#1 -58064599#0 -7976448#1 -7976448#0 44356591#0 44356591#1 44356591#2 411909327#0 411909327#1 7936314#0 7936314#1 411911880 286078256#0 7936303#0 7936303#1 7936303#2 186822211#0 186822215#0 24283694 55488308 190629953#0 190629953#1 -45985481#2 -45985481#0"/>
    </vehicle>
    <vehicle id="veh69" type="passenger" depart="80.24" departLane="best">
        <route edges="177922838#3 23582606#3 23582606#4 359428795 302299788#1 411913364#0 55556740#0 363255022 363159274 210597392#0 210597392#1 7976486#0 7976486#1 171984639#0 171984639#1 302113472"/>
    </vehicle>
    <vehicle id="veh70" type="passenger" depart="81.40" departLane="best">
        <route edges="-24283528#4 -24283528#3 -24283528#2 -24283528#1 -24283528#0 24283559#0 24283559#1 24283559#2 37196673#0 37196673#1 23893976 -359110260#1 7976486#0 7976486#1 43707023 343517468#1 31584504#2"/>
    </vehicle>
    <vehicle id="veh71" type="passenger" depart="82.57" departLane="best">
        <route edges="45985481#0 45985481#1 7936346#0 7936303#0 7936303#1 7936303#2 186822211#0 37590015 -302113468 -334883453 -291193537"/>
    </vehicle>
    <vehicle id="veh72" type="passenger" depart="83.73" departLane="best">
        <route edges="-69033973 7976631#0 7976631#1 7976631#2 -338025195#1 -338025195#0 338025192#0 338025192#1"/>
    </vehicle>
    <vehicle id="veh73" type="passenger" depart="84.89" departLane="best">
        <route edges="-525510189 7976483 389686394#1 31692369#1 256854467 -56725337#3 -56725337#2 -56725337#1 -56725337#0 -58064599#1 -58064599#0 -7976448#1 -7976448#0 44356591#0 44356591#1 44356591#2 411909327#0 411909327#1 7936314#0 7936314#1 411911880 286078256#0 7936303#0 7936303#1 7936303#2 186822211#0 186822215#0 24283694 55488308 190629953#0 190629953#1 -390044752 -31623244#0"/>
    </vehicle>
    <vehicle id="veh74" type="passenger" depart="86.06" departLane="best">
        <route edges="7933408#0 7933408#1 7933408#2 377851569#0 377851569#1 377851568 7933944 7932712#1 7932712#2 7932712#3 372299409#0 372299409#1 372299410#0 372299410#1 404917414 404917415#0 55488299 52739335#0 186822215#0 24283694 413528724 377882536#0 377882536#1 363818322 -25199500#1 278314967"/>
    </vehicle>
    <vehicle id="veh76" type="passenger" depart="88.38" departLane="best">
        <route edges="43707055#0 43707055#1 43707055#2 -7976448#1 -7976448#0 44356591#0 44356591#1 44356591#2 411909327#0 411909327#1 7936457 10511797#0 43056322#0 43056322#1 43056321#1 -43056321#1"/>
    </vehicle>
    <vehicle id="veh77" type="passenger" depart="89.54" departLane="best">
        <route edges="24283528#3 -24283528#3 -24283528#2 -24283528#1 -24283528#0 24283559#0 24283559#1 24283559#2 37196673#0 37196673#1 23893976"/>
    </vehicle>
    <vehicle id="veh78" type="passenger" depart="90.71" departLane="best">
        <route edges="389686394#1 31692369#1 302113472 44356590 -525510189 -439842578 7976495#0 7976495#1 171984641#0 7976593#1 338025195#0 338025195#1"/>
    </vehicle>
    <vehicle id="veh79" type="passenger" depart="91.87" departLane="best">
        <route edges="23893754#4 343547062#0 24283666 23893810#0 23893810#1 23893810#2 411908606 7936457 113838783#0 113838783#1 243065797 302113464 7976448#0 7976448#1 58064599#0 58064599#1 56725337#0 56725337#1 56725337#2 56725337#3 286078255 44356590 -525510189 -439842578 7976495#0 7976495#1 7976586 171984639#0 171984639#1"/>
    </vehicle>
    <vehicle id="veh80" type="passenger" depart="93.03" departLane="best">
        <route edges="45985481#0 45985481#1 7936613#0 7936613#1 363520361 113838783#0 113838783#1 243065797 302113464 23582606#0 23582606#1 23582606#2 23582606#3 23582606#4 359428795 302299788#1 411913364#0 37153661 325146681#0 325146681#1 13347875#0 13347875#1 13347875#2 411914875 309482435 -264129023 -56019866"/>
    </vehicle>
    <vehicle id="veh81" type="passenger" depart="94.20" departLane="best">
        <route edges="-43707293 522865605 359428795 302299788#1 411913364#0 37153661 325146681#0 325146681#1 13347875#0 13347875#1 13347875#2 411914875 309482435 -108489923#1 377851568 10508024#0 10508024#1 10508024#2 10508024#3 24283666 23893810#0 23893810#1"/>
    </vehicle>
    <vehicle id="veh82" type="passenger" depart="95.36" departLane="best">
        <route edges="24283528#2 -24283528#2 -24283528#1 -24283528#0 24283559#0 24283559#1 24283559#2 37196673#0 37196673#1 23893976 -359110260#1 7976486#0 7976486#1 171984639#0 171984639#1 256854467 -56725337#3 -56725337#2 -56725337#1 -56725337#0 -58064599#1 -58064599#0 -7976448#1 -7976448#0 44356591#0 44356591#1 44356591#2 411909327#0 411909327#1 7936457 10511797#0"/>
    </vehicle>
    <vehicle id="veh83" type="passenger" depart="96.52" departLane="best">
        <route edges="24283574#0 24283574#1 24283552#0 24283552#1 24283559#1 24283559#2 37196673#0 37196673#1 23893976 -359110260#1 7976486#0 7976486#1 171984639#0 171984639#1 302113472 44356590 31620416#1 45763754#1"/>
    </vehicle>
    <vehicle id="veh84" type="passenger" depart="97.68" departLane="best">
        <route edges="307657355 117297985#0 117297985#1 7932712#2 7932712#3 372299409#0 372299409#1 38215231#0 38215231#1 372299411#0 372299411#1 372299411#2 372299411#3 343547062#0 24283666 23893810#0 23893810#1 23893810#2 177922838#0 177922838#1 177922838#2 177922838#3 23582606#3 23582606#4 359428795 302299788#1 411913364#0 55556740#0 363255022 363159274 210597392#0 210597392#1 359110260#1 23893983 24283548#0 24283548#1 24283548#2 24283548#3 24283574#0 24283574#1 24283552#0 24283552#1 24283552#2 24283528#0 -24283528#0"/>
    </vehicle>
    <vehicle id="veh85" type="passenger" depart="98.85" departLane="best">
        <route edges="79816479#2 118721964#0 118721964#2 325146681#0 325146681#1 13347875#0 13347875#1 13347875#2 411914875 309482435 -264129023 23893689 411257679#2 -23893643#2 -23893643#1 -23893643#0 -338025195#1 -338025195#0 338025192#0 338025192#1 7976486#0 7976486#1 171984639#0 171984639#1 302113472 44356590 -525510189 -439842578 439842578"/>
    </vehicle>
    <vehicle id="veh86" type="passenger" depart="100.01" departLane="best">
        <route edges="7976495#0 7976495#1 171984641#0 -210597392#1 -210597392#0 -363159274 -363255022 -55556740#1 37153661 325146681#0 325146681#1 13347875#0 13347875#1 13347875#2 411914875 309482435 -108489923#1 377851568 7933944 7932712#1 7932712#2 7932712#3"/>
    </vehicle>
    <vehicle id="veh87" type="passenger" depart="101.17" departLane="best">
        <route edges="44356590 389686394#1 31692369#1 256854467 -56725337#3 -56725337#2 -56725337#1 -56725337#0 -58064599#1 -58064599#0 -7976448#1 -7976448#0 44356591#0 44356591#1 44356591#2 411909327#0 411909327#1 7936314#0 7936314#1 411911880 286078256#0 7936303#0 7936303#1 52698705#0 -55488299 -404917415#1 -404917414 -372299410#1 -372299410#0"/>
    </vehicle>
    <vehicle id="veh88" type="passenger" depart="102.34" departLane="best">
        <route edges="27173012 31692661#0 31692661#1 43707055#1 43707055#2 -7976448#1 -7976448#0 44356591#0 44356591#1 44356591#2 411909327#0 411909327#1 7936457 113838783#0 113838783#1 243065797 363554496 363554495 31647681 -44194781#3 -44194781#2 -44194781#1"/>
    </vehicle>
    <vehicle id="veh89" type="passenger" depart="103.50" departLane="best">