<?xml version="1.0" encoding="UTF-8"?>

<!-- generated on 12/19/17 02:12:44 by SUMO duarouter Version 0.31.0
<?xml version="1.0" encoding="UTF-8"?>

<configuration xmlns:xsi="http://www.w3.org/2001/XMLSchema-instance" xsi:noNamespaceSchemaLocation="http://sumo.dlr.de/xsd/duarouterConfiguration.xsd">

    <input>
        <net-file value="osm.net.xml"/>
        <route-files value="osm.motorcycle.trips.xml"/>
    </input>

    <output>
        <output-file value="osm.motorcycle.rou.xml"/>
    </output>

    <processing>
        <ignore-errors value="true"/>
    </processing>

    <time>
        <begin value="0"/>
        <end value="1000.0"/>
    </time>

    <report>
        <no-warnings value="true"/>
        <no-step-log value="true"/>
    </report>

</configuration>
-->

<routes xmlns:xsi="http://www.w3.org/2001/XMLSchema-instance" xsi:noNamespaceSchemaLocation="http://sumo.dlr.de/xsd/routes_file.xsd">
    <vType id="motorcycle" speedFactor="normc(1.00,0.10,0.20,2.00)" vClass="motorcycle"/>
    <vehicle id="moto1" type="motorcycle" depart="4.15" departLane="best">
        <route edges="122905764#2 122905764#3 122905764#4 377879487#1 -46233529 411911880 26598858#1 7936613#1 363520361 113838783#0 113838783#1 243065797 302113464 7976448#0 7976448#1 58064599#0 58064599#1 -58064599#1"/>
    </vehicle>
    <vehicle id="moto2" type="motorcycle" depart="8.31" departLane="best">
        <route edges="404917413 404917415#0 55488299 52739335#0 186822215#0 24283694 413528724 363472323 37146431"/>
    </vehicle>
    <vehicle id="moto3" type="motorcycle" depart="12.46" departLane="best">
        <route edges="56019866 23893689 411257679#2 -23893643#2 -23893643#1 -23893643#0 -338025195#1 -338025195#0 338025192#0 338025192#1 359110260#1 23893983 -277741511 -302299800#1 -302299800#0"/>
    </vehicle>
    <vehicle id="moto4" type="motorcycle" depart="16.61" departLane="best">
        <route edges="24283548#0 24283548#1 24283548#2 24283548#3 24283574#0 24283574#1 24283552#0 24283552#1 24283559#1 24283559#2 37196673#0 37196673#1 23893976 -359110260#1 -210597392#1 -210597392#0"/>
    </vehicle>
    <vehicle id="moto5" type="motorcycle" depart="20.77" departLane="best">
        <route edges="-7933104#1 -7933104#0 372299411#2 372299411#3 343547062#0 24283666 23893810#0 23893810#1 23893810#2 411908606 7936314#0 7936314#1 411911880 26598858#1"/>
    </vehicle>
    <vehicle id="moto6" type="motorcycle" depart="24.92" departLane="best">
        <route edges="-186736235#5 -186736235#4 -186736235#3 -186736235#2 117297986#1 37190757 302113464 7976448#0 7976448#1 58064599#0 58064599#1 56725337#0 56725337#1 56725337#2 56725337#3 286078255 44356590 -525510189"/>
    </vehicle>
    <vehicle id="moto7" type="motorcycle" depart="29.07" departLane="best">
        <route edges="363818322 -25199500#1 -25199500#0 302113483#1 302113468 10529189#0 24283694 55488308 190629953#0 190629953#1 7936613#0 7936613#1 363520361 113838783#0 113838783#1 243065797 302113464 7976448#0 7976448#1 58064599#0 58064599#1 56725337#0 56725337#1 56725337#2 56725337#3 286078255"/>
    </vehicle>
    <vehicle id="moto8" type="motorcycle" depart="33.23" departLane="best">
        <route edges="-7934417 7932712#1 7932712#2 7932712#3 372299409#0 372299409#1 38215231#0 38215231#1 372299411#0 372299411#1 372299411#2 372299411#3 343547062#0 24283666 23893810#0 23893810#1 23893810#2 411908606 7936457 113838783#0 113838783#1 243065797 302113464 7976448#0 7976448#1 58064599#0 58064599#1 56725337#0 56725337#1 56725337#2 56725337#3 286078255 44356590 -525510189 -439842578 7976495#0 7976495#1 7976586 43707023 343517468#1 31584504#2"/>
    </vehicle>
    <vehicle id="moto9" type="motorcycle" depart="37.38" departLane="best">
        <route edges="43707294 -343517468#1 -343517468#0 171984639#0 171984639#1 302113472 44356590 26598924#0 26598924#1 -497860197#1 -497860197#0 31647681 42956774 -117297986#0"/>
    </vehicle>
    <vehicle id="moto10" type="motorcycle" depart="41.53" departLane="best">
        <route edges="43707072 43707065#1 -43707293 522865605 359428795 302299788#1 411913364#0 37153661 325146681#0 325146681#1 13347875#0 13347875#1 13347875#2 411914875 309482435 -108489923#1 377851568 7933944 7932712#1 7932712#2 7932712#3 372299409#0 372299409#1 38215231#0 38215231#1 372299411#0"/>
    </vehicle>
    <vehicle id="moto11" type="motorcycle" depart="45.69" departLane="best">
        <route edges="190629953#1 7936346#0 7936303#0 7936303#1 52698705#0 -55488299 -404917415#1"/>
    </vehicle>
    <vehicle id="moto12" type="motorcycle" depart="49.84" departLane="best">
        <route edges="7976448#0 -7976448#0 44356591#0 44356591#1 44356591#2 411909327#0 411909327#1 7936457 113838783#0 113838783#1 243065797 363554496 363554495 31647681 42956774 186736235#0 186736235#3"/>
    </vehicle>
    <vehicle id="moto13" type="motorcycle" depart="53.99" departLane="best">
        <route edges="-278314967 -25199500#0 302113483#1 302113468 10529189#0 24283694 55488308 190629953#0 190629953#1 7936346#0 7936303#0 7936303#1 52698705#0 -55488299 -404917415#1 -404917414 -372299410#1 -372299410#0 38215231#0 38215231#1 372299411#0 372299411#1 372299411#2 23893728#0 23893728#1 108487694 -307657355"/>
    </vehicle>
    <vehicle id="moto14" type="motorcycle" depart="58.15" departLane="best">
        <route edges="45985481#0 45985481#1 7936613#0 7936613#1 363520361 113838783#0 113838783#1 243065797 363554496 363554495 31647681 -44194781#3 -44194781#2 31622052"/>
    </vehicle>
    <vehicle id="moto15" type="motorcycle" depart="62.30" departLane="best">
        <route edges="43707293 -43707293 43707055#0 43707055#1 43707055#2 -7976448#1 -7976448#0 44356591#0 44356591#1 44356591#2 411909327#0 411909327#1 7936314#0 7936314#1 411911880 286078256#0 7936303#0 7936303#1 52698705#0 377879487#0"/>
    </vehicle>
    <vehicle id="moto16" type="motorcycle" depart="66.45" departLane="best">
        <route edges="306097794 177921038 177921036#0 177921036#1 -177921034 38215485#0 38215485#1 -338025195#1 -338025195#0 338025192#0 338025192#1 7976486#0 7976486#1 171984639#0 171984639#1 302113472 44356590 -525510189 -439842578 7976495#0 7976495#1"/>
    </vehicle>
    <vehicle id="moto17" type="motorcycle" depart="70.61" departLane="best">
        <route edges="23893689 411257679#2 -23893643#2 24283483 343517465 343517461 23893687#3 309482435 -108489923#1 377851568 10508024#0 10508024#1 10508024#2 10508024#3 24283666 23893810#0 23893810#1 23893810#2 411908606 7936457 113838783#0 113838783#1 243065797 302113464"/>
    </vehicle>
    <vehicle id="moto19" type="motorcycle" depart="78.91" departLane="best">
        <route edges="377853589 108489923#0 -264129023 23893689 411257679#2 -23893643#2"/>
    </vehicle>
    <vehicle id="moto20" type="motorcycle" depart="83.07" departLane="best">
        <route edges="-7976555 439842578 7976483 389686394#1 31692369#1 256854467 -56725337#3 -56725337#2 -56725337#1 -56725337#0 -58064599#1 -58064599#0 -7976448#1 -7976448#0 44356591#0 44356591#1 44356591#2 411909327#0 411909327#1 7936314#0 7936314#1 411911880 286078256#0 7936303#0 7936303#1 52698705#0 -55488299 -404917415#1 -404917414 266610215 122905764#2"/>
    </vehicle>
    <vehicle id="moto21" type="motorcycle" depart="87.22" departLane="best">
        <route edges="-264129023 264129023 -108489923#1 377851568 10508024#0"/>
    </vehicle>
    <vehicle id="moto22" type="motorcycle" depart="91.37" departLane="best">
        <route edges="-315275163 -7976555 439842578 7976483 26598924#0 26598924#1 -497860197#1 -497860197#0 31647681 42956774 117297986#1"/>
    </vehicle>
    <vehicle id="moto23" type="motorcycle" depart="95.52" departLane="best">
        <route edges="359428795 302299788#1 411913364#0 55556740#0 363255022 363159274 210597392#0 210597392#1 359110260#1 23893983 24283548#0 24283548#1 24283548#2 24283548#3 24283574#0 -231374322#1 -231374322#0 231374322#0"/>
    </vehicle>
    <vehicle id="moto24" type="motorcycle" depart="99.68" departLane="best">
        <route edges="23893643#2 411257679#3 411257679#1 411257679#2 -23893643#2 24283483 343517465 343517461 23893687#3 309482435 -264129023 -56019866"/>
    </vehicle>
    <vehicle id="moto25" type="motorcycle" depart="103.83" departLane="best">
        <route edges="118721964#0 118721964#2 325146681#0 325146681#1 13347875#0 13347875#1 13347875#2 411914875 309482435 -108489923#1 377851568 7933944 7934417"/>
    </vehicle>
    <vehicle id="moto26" type="motorcycle" depart="107.98" departLane="best">
        <route edges="363554496 363554495 26598953 -56725337#1 -56725337#0 -58064599#1 -58064599#0 -7976448#1 -7976448#0 44356591#0 44356591#1 44356591#2 411909327#0 411909327#1 7936314#0 7936314#1 411911880 286078256#0 7936303#0 7936303#1 7936303#2 186822211#0 186822215#0 24283694 55488308 190629953#0 190629953#1 -390044752 31623244#1"/>
    </vehicle>
    <vehicle id="moto27" type="motorcycle" depart="112.14" departLane="best">
        <route edges="-44194781#3 44194781#3 42956774 117297986#1 37190757 302113464 44356591#0 44356591#1 44356591#2 411909327#0 411909327#1 7936314#0 7936314#1 411911880 286078256#0 7936303#0 7936303#1 52698705#0 377879487#0"/>
    </vehicle>
    <vehicle id="moto28" type="motorcycle" depart="116.29" departLane="best">
        <route edges="-43707293 43707055#0 43707055#1 43707055#2 -7976448#1 -7976448#0 44356591#0 44356591#1 44356591#2 411909327#0 411909327#1 7936457 113838783#0 113838783#1 243065797 302113464 23582606#0 23582606#1 23582606#2 23582606#3"/>
    </vehicle>
    <vehicle id="moto29" type="motorcycle" depart="120.44" departLane="best">
        <route edges="7976631#1 7976631#2 23893643#0 23893643#1 24283483 343517465 343517461"/>
    </vehicle>
    <vehicle id="moto30" type="motorcycle" depart="124.60" departLane="best">
        <route edges="31584504#1 -343517468#1 -343517468#0 171984639#0 171984639#1 302113472 44356590 -525510189 -439842578 7976495#0 7976495#1 171984641#0 359110260#1 23893983 24283548#0 24283548#1 24283548#2 24283548#3 24283574#0 24283574#1 24283552#0 24283552#1 24283559#1 24283559#2 37196673#0"/>
    </vehicle>
    <vehicle id="moto31" type="motorcycle" depart="128.75" departLane="best">
        <route edges="45763754#0 -45763754#0 -497860197#1 -497860197#0 26598953 -56725337#1 -56725337#0 27173012 522865607 522865605 359428795 302299788#1 411913364#0 37153661 325146681#0 325146681#1 13347875#0 13347875#1 13347875#2 411914875 309482435 -108489923#1 377851568 10508024#0 10508024#1 10508024#2 10508024#3 24283666 23893810#0 23893810#1 23893810#2 411908606"/>
    </vehicle>
    <vehicle id="moto32" type="motorcycle" depart="132.90" departLane="best">
        <route edges="-7976555 7976495#0 7976495#1 171984641#0 -210597392#1"/>
    </vehicle>
    <vehicle id="moto33" type="motorcycle" depart="137.06" departLane="best">
        <route edges="177922838#2 338683089#1 44356591#2 411909327#0 411909327#1 7936457 113838783#0"/>
    </vehicle>
    <vehicle id="moto34" type="motorcycle" depart="141.21" departLane="best">
        <route edges="522865605 359428795 302299788#1 411913364#0 55556740#0 363255022 363159274 210597392#0 210597392#1 7976593#1 338025195#0 338025195#1 -38215485#1 -38215485#0 23893687#0 177921038 177921036#0 177921036#1"/>
    </vehicle>
    <vehicle id="moto35" type="motorcycle" depart="145.36" departLane="best">
        <route edges="37153661 325146681#0 325146681#1 13347875#0 13347875#1 13347875#2 411914875 309482435 -264129023 23893689 411257679#2 -23893643#2 24283483 343517465 343517461 23893687#3"/>
    </vehicle>
    <vehicle id="moto36" type="motorcycle" depart="149.52" departLane="best">
        <route edges="7932712#3 372299409#0 372299409#1 38215231#0 38215231#1 372299411#0 372299411#1 372299411#2 372299411#3 343547062#0 24283666 23893810#0 23893810#1 23893810#2 177922838#0 177922838#1 177922838#2 177922838#3 23582606#3 23582606#4 359428795 302299788#1 411913364#0 55556740#0 363255022 363159274 210597392#0 210597392#1 359110260#1 23893983 24283548#0 24283548#1 24283548#2 24283548#3"/>
    </vehicle>
    <vehicle id="moto37" type="motorcycle" depart="153.67" departLane="best">
        <route edges="117297986#1 44356586#0 44356586#1 44356586#2 10511797#2"/>
    </vehicle>
    <vehicle id="moto38" type="motorcycle" depart="157.82" departLane="best">
        <route edges="31623244#0 31623244#1 7936613#0 7936613#1 363520361 113838783#0 113838783#1 243065797 302113464 7976448#0 7976448#1 58064599#0 58064599#1 56725337#0 56725337#1 56725337#2"/>
    </vehicle>
    <vehicle id="moto39" type="motorcycle" depart="161.98" departLane="best">
        <route edges="23893810#2 411908606 7936457 113838783#0 113838783#1 243065797 302113464 7976448#0 7976448#1 58064599#0 -58064599#0"/>
    </vehicle>
    <vehicle id="moto40" type="motorcycle" depart="166.13" departLane="best">
        <route edges="79816479#1 46240381#0 46240381#1 338683089#0 338683089#1 44356591#2 411909327#0 411909327#1 7936457 113838783#0 113838783#1 243065797 302113464 7976448#0 7976448#1 58064599#0 58064599#1 56725337#0 56725337#1 56725337#2 56725337#3 286078255 44356590 26598924#0 26598924#1"/>
    </vehicle>
    <vehicle id="moto41" type="motorcycle" depart="170.28" departLane="best">
        <route edges="-278314967 -25199500#0 302113483#1 302113468 10529189#0 24283694 55488308 190629953#0 190629953#1 7936613#0 7936613#1 363520361 113838783#0 113838783#1 243065797 302113464 23582606#0 23582606#1 23582606#2 23582606#3 23582606#4 359428795 302299788#1 411913364#0 55556740#0 23893849#0 -23893849#0"/>
    </vehicle>
    <vehicle id="moto42" type="motorcycle" depart="174.44" departLane="best">
        <route edges="-31579388#1 231374322#0 231374322#1 24283574#1 24283552#0 24283552#1 24283559#1 24283559#2 37196673#0 37196673#1 23893976 -359110260#1 7976593#1 338025195#0 -338025195#0 338025192#0 338025192#1"/>
    </vehicle>
    <vehicle id="moto43" type="motorcycle" depart="178.59" departLane="best">
        <route edges="43707023 343517468#1 31584504#2 522865607 522865605 359428795 302299788#1 411913364#0 37153661 325146681#0 325146681#1 13347875#0 13347875#1 13347875#2 411914875 309482435 -108489923#1 377851568 10508024#0 10508024#1 10508024#2 10508024#3 24283666 23893810#0 23893810#1 23893831#1"/>
    </vehicle>
    <vehicle id="moto44" type="motorcycle" depart="182.74" departLane="best">
        <route edges="-24283528#3 -24283528#2 -24283528#1 -24283528#0 24283559#0 24283559#1 24283559#2 37196673#0 37196673#1 23893976 -359110260#1 7976486#0 7976486#1 171984639#0 171984639#1 256854467 -56725337#3 -56725337#2 -56725337#1 -56725337#0 -58064599#1 -58064599#0 -7976448#1 -7976448#0 44356591#0 44356591#1 44356591#2 411909327#0 411909327#1 7936457 113838783#0 113838783#1 243065797 302113464 23582606#0 23582606#1 23582606#2 23582606#3 23582606#4"/>
    </vehicle>
    <vehicle id="moto45" type="motorcycle" depart="186.90" departLane="best">
        <route edges="79816479#1 79816479#2 118721964#0 118721964#2 325146681#0 325146681#1 13347875#0 13347875#1 13347875#2 411914875 309482435 -264129023 23893689 411257679#2 -23893643#2 -23893643#1 -23893643#0 -338025195#1 -338025195#0 338025192#0 338025192#1 359110260#1 23893983 -277741511 -302299800#1 275777271#0"/>
    </vehicle>
    <vehicle id="moto46" type="motorcycle" depart="191.05" departLane="best">
        <route edges="7976555 -7976555 7976495#0 7976495#1 171984641#0 -210597392#1 -210597392#0 -363159274 -363255022 -55556740#1 37153661 325146681#0 325146681#1 13347875#0 13347875#1 13347875#2 46331380#0 46331380#1"/>
    </vehicle>
    <vehicle id="moto47" type="motorcycle" depart="195.20" departLane="best">
        <route edges="372299412#0 372299412#1 372299411#0 372299411#1 372299411#2 372299411#3 343547062#0 24283666 23893810#0 23893810#1 23893810#2 177922838#0 177922838#1 177922838#2 177922838#3 23582606#3 23582606#4 359428795 302299788#1 411913364#0 55556740#0 363255022 363159274 210597392#0 210597392#1 359110260#1 23893983 -277741511 -302299800#1 275777271#0 275777271#1 275777470#0 275777470#1"/>
    </vehicle>
    <vehicle id="moto48" type="motorcycle" depart="199.36" departLane="best">
        <route edges="118721964#0 118721964#2 325146681#0 325146681#1 13347875#0 13347875#1 13347875#2 411914875 309482435 -264129023 23893689 411257679#2 -23893643#2 24283483 343517465"/>
    </vehicle>
    <vehicle id="moto49" type="motorcycle" depart="203.51" departLane="best">
        <route edges="243064143#1 -46233529 411911880 26598858#1 7936613#1 363520361 113838783#0 113838783#1 243065797 302113464 44356591#0 44356591#1 44356591#2 411909327#0 411909327#1 7936457"/>
    </vehicle>
    <vehicle id="moto50" type="motorcycle" depart="207.66" departLane="best">
        <route edges="277741511 23893976 -359110260#1 7976486#0 7976486#1 171984639#0 171984639#1 302113472 44356590 26598924#0 26598924#1 -497860197#1 -497860197#0 31647681 -44194781#3 -44194781#2"/>
    </vehicle>
    <vehicle id="moto51" type="motorcycle" depart="211.82" departLane="best">
        <route edges="7932712#2 7932712#3 372299409#0 372299409#1 38215231#0 38215231#1 372299411#0 372299411#1 372299411#2 372299411#3 343547062#0 24283666 23893810#0 23893810#1 23893810#2 177922838#0 177922838#1 177922838#2 177922838#3 23582606#3 23582606#4 359428795 302299788#1 411913364#0 55556740#0 363255022 363159274 -363159274 466395278"/>
    </vehicle>
    <vehicle id="moto52" type="motorcycle" depart="215.97" departLane="best">
        <route edges="177921036#0 177921036#1 -177921034 38215485#0 38215485#1 23893643#0 23893643#1 24283483 343517465 343517461"/>
    </vehicle>
    <vehicle id="moto53" type="motorcycle" depart="220.12" departLane="best">
        <route edges="338025195#1 -338025195#1 -338025195#0 338025192#0 338025192#1 7976486#0 7976486#1 171984639#0 171984639#1 256854467 -56725337#3 -56725337#2 -56725337#1 -56725337#0 -58064599#1 -58064599#0 -7976448#1 -7976448#0 44356591#0 44356591#1 44356591#2 411909327#0 411909327#1 7936314#0 7936314#1 411911880 286078256#0 7936303#0 7936303#1 52698705#0 -55488299 -404917415#1 -404917414"/>
    </vehicle>
    <vehicle id="moto54" type="motorcycle" depart="224.28" departLane="best">
        <route edges="411911880 26598858#1 7936613#1 363520361 113838783#0 113838783#1 243065797 302113464 23582606#0 23582606#1 23582606#2 23582606#3 23582606#4 359428795 302299788#1 411913364#0 55556740#0 363255022 363159274 210597392#0 210597392#1 359110260#1 23893983 -277741511 277741511"/>
    </vehicle>
    <vehicle id="moto55" type="motorcycle" depart="228.43" departLane="best">
        <route edges="-108297381 407497545#1 464696418#0 377851569#0 377851569#1 377851568 10508024#0 10508024#1 10508024#2 10508024#3 24283666 23893810#0 23893810#1 23893810#2 177922838#0 177922838#1"/>
    </vehicle>
    <vehicle id="moto56" type="motorcycle" depart="232.58" departLane="best">
        <route edges="522865607 43707055#0 43707055#1 43707055#2 -7976448#1 -7976448#0 44356591#0 44356591#1 44356591#2 411909327#0 411909327#1 7936457 10511797#0 43056322#0 43056322#1 43056321#1 44356586#1 44356586#2"/>
    </vehicle>
    <vehicle id="moto57" type="motorcycle" depart="236.74" departLane="best">
        <route edges="177921038 177921036#0 177921036#1 -177921034 23893687#0 23893687#2 23893687#3 309482435 -108489923#1 377851568 7933944 7932712#1 7932712#2 7932712#3 372299409#0 372299409#1 372299410#0 372299410#1 404917414 404917415#0 55488299 52739335#0 186822215#0 24283694 413528724 377882536#0 377882536#1 363818322 -25199500#1 -25199500#0"/>
    </vehicle>
    <vehicle id="moto58" type="motorcycle" depart="240.89" departLane="best">
        <route edges="522865607 43707055#0 43707055#1 43707055#2 -7976448#1 -7976448#0 44356591#0 44356591#1 44356591#2 411909327#0 411909327#1 7936314#0"/>
    </vehicle>
    <vehicle id="moto59" type="motorcycle" depart="245.04" departLane="best">
        <route edges="-27173072 10508024#1 10508024#2 10508024#3 24283666 23893810#0 23893810#1 23893810#2 243064143#0 243064143#1"/>
    </vehicle>
    <vehicle id="moto60" type="motorcycle" depart="249.20" departLane="best">
        <route edges="-25199500#0 302113483#1 302113468 10529189#0 24283694 55488308 190629953#0 190629953#1 7936346#0 7936303#0 7936303#1 52698705#0 -55488299 -404917415#1 404917415#0"/>
    </vehicle>
    <vehicle id="moto61" type="motorcycle" depart="253.35" departLane="best">
        <route edges="411913364#0 55556740#0 363255022 363159274 210597392#0 210597392#1 7976593#1 338025195#0 338025195#1 299836710 7976631#0 -343528767#2"/>
    </vehicle>
    <vehicle id="moto62" type="motorcycle" depart="257.50" departLane="best">
        <route edges="26598953 56725337#2 56725337#3 286078255 44356590 -525510189 -439842578 7976495#0 7976495#1 171984641#0 7976593#1 338025195#0 338025195#1 299836710"/>
    </vehicle>
    <vehicle id="moto63" type="motorcycle" depart="261.66" departLane="best">
        <route edges="117297986#1 37190757 363554496 363554495 497860197#0"/>
    </vehicle>
    <vehicle id="moto64" type="motorcycle" depart="265.81" departLane="best">
        <route edges="24283548#0 24283548#1 24283548#2 24283548#3 24283574#0 24283574#1 24283552#0 24283552#1 24283559#1 24283559#2 37196673#0 37196673#1 23893976 -359110260#1 7976486#0 7976486#1 171984639#0 171984639#1 256854467 -56725337#3 -56725337#2 -56725337#1 -56725337#0"/>
    </vehicle>
    <vehicle id="moto65" type="motorcycle" depart="269.96" departLane="best">
        <route edges="307657355 117297985#0 117297985#1 7932712#2 7932712#3 372299409#0 372299409#1 372299410#0 372299410#1 404917414 404917415#0 55488299 377879487#0"/>
    </vehicle>
    <vehicle id="moto66" type="motorcycle" depart="274.12" departLane="best">
        <route edges="-56725337#2 56725337#2 56725337#3 286078255 44356590 -525510189 -439842578 7976495#0 7976495#1 171984641#0 7976593#1 338025195#0 338025195#1 -38215485#1 -38215485#0 23893687#0 177921038 177921036#0"/>
    </vehicle>
    <vehicle id="moto67" type="motorcycle" depart="278.27" departLane="best">
        <route edges="79816479#0 79816479#1 79816479#2 118721964#0 118721964#2 325146681#0 325146681#1 13347875#0 13347875#1 13347875#2 411914875 309482435 -108489923#1 377851568 7933944 7932712#1 7932712#2 7932712#3 372299409#0 372299409#1 38215231#0 38215231#1 372299411#0 372299411#1 372299411#2 372299411#3 343547062#0"/>
    </vehicle>
    <vehicle id="moto68" type="motorcycle" depart="282.42" departLane="best">
        <route edges="24283559#0 24283559#1 24283559#2 37196673#0 37196673#1 23893976 -359110260#1 7976593#1 338025195#0 338025195#1 -38215485#1 -38215485#0 177921034 177921033 26616191#0 26616191#1"/>
    </vehicle>
    <vehicle id="moto69" type="motorcycle" depart="286.57" departLane="best">
        <route edges="-343517468#1 -343517468#0 171984639#0 171984639#1 256854467 -56725337#3 -56725337#2 -56725337#1 -56725337#0 -58064599#1 -58064599#0 -7976448#1 -7976448#0 44356591#0 44356591#1 44356591#2 411909327#0 411909327#1 7936314#0 7936314#1 411911880 286078256#0 7936303#0 7936303#1 52698705#0 -55488299 -404917415#1 -404917414 -372299410#1 -372299410#0 38215231#0 38215231#1 372299411#0 372299411#1 7933104#0 -7933104#0"/>
    </vehicle>
    <vehicle id="moto70" type="motorcycle" depart="290.73" departLane="best">
        <route edges="190629953#0 190629953#1 7936613#0 7936613#1 363520361 113838783#0 113838783#1 243065797 302113464 7976448#0 7976448#1 58064599#0 58064599#1 56725337#0 56725337#1 56725337#2 56725337#3 286078255 44356590 -525510189 -439842578 7976495#0 7976495#1 7976586 43707023 343517468#1 31584504#2"/>
    </vehicle>
    <vehicle id="moto71" type="motorcycle" depart="294.88" departLane="best">
        <route edges="10508024#0 10508024#1 10508024#2 10508024#3 24283666 23893810#0 23893810#1 23893810#2 411908606 7936457 113838783#0 113838783#1 243065797 302113464 7976448#0 7976448#1 58064599#0 -58064599#0"/>
    </vehicle>
    <vehicle id="moto72" type="motorcycle" depart="299.03" departLane="best">
        <route edges="-7976555 439842578 7976483 389686394#1 31692369#1 256854467 -56725337#3 -56725337#2 -56725337#1 -56725337#0 -58064599#1 58064599#1"/>
    </vehicle>
    <vehicle id="moto73" type="motorcycle" depart="303.19" departLane="best">
        <route edges="46331380#1 10508024#1 10508024#2 10508024#3 24283666 23893810#0 23893810#1 23893810#2 411908606 7936314#0 7936314#1 411911880 286078256#0 7936303#0 7936303#1 7936303#2 186822211#0 37590015 -302113468 -334883453 -291193537"/>
    </vehicle>
    <vehicle id="moto74" type="motorcycle" depart="307.34" departLane="best">
        <route edges="10508024#3 24283666 23893810#0 23893810#1 23893810#2 411908606 7936314#0 7936314#1 411911880 286078256#0 7936303#0 7936303#1 7936303#2 186822211#0 186822215#0 24283694 413528724 377882536#0 377882536#1 363818322"/>
    </vehicle>
    <vehicle id="moto75" type="motorcycle" depart="311.49" departLane="best">
        <route edges="-7933104#0 372299411#2 372299411#3 343547062#0 24283666 23893810#0 23893810#1 23893810#2 177922838#0 177922838#1 177922838#2 177922838#3 23582606#3 23582606#4 359428795 302299788#1 411913364#0 55556740#0 363255022 363159274 -363159274"/>
    </vehicle>
    <vehicle id="moto76" type="motorcycle" depart="315.65" departLane="best">
        <route edges="7934003#0 10508024#0 10508024#1 10508024#2 10508024#3 24283666 23893810#0 23893810#1 23893810#2 411908606 7936457 113838783#0 113838783#1 243065797 302113464 7976448#0 7976448#1 58064599#0 58064599#1 56725337#0 56725337#1 56725337#2 56725337#3 286078255 44356590 -525510189 -439842578 7976555 315275163"/>
    </vehicle>
    <vehicle id="moto77" type="motorcycle" depart="319.80" departLane="best">
        <route edges="26598924#1 -497860197#1 -497860197#0 26598953 -56725337#1 -56725337#0 27173012 522865607 522865605 359428795 302299788#1 411913364#0"/>
    </vehicle>
    <vehicle id="moto78" type="motorcycle" depart="323.95" departLane="best">
        <route edges="43707293 -43707293 43707055#0 43707055#1 43707055#2 -7976448#1 -7976448#0 44356591#0 44356591#1 44356591#2 411909327#0 411909327#1 7936314#0 7936314#1 411911880 286078256#0 7936303#0 7936303#1 7936303#2 186822211#0 186822215#0 24283694 55488308 190629953#0 190629953#1 -45985481#2"/>
    </vehicle>
    <vehicle id="moto79" type="motorcycle" depart="328.11" departLane="best">
        <route edges="-302113483#1 302113483#1 302113468 10529189#0 24283694 55488308 190629953#0 190629953#1 7936613#0 7936613#1 363520361 113838783#0 113838783#1 243065797 302113464 23582606#0 23582606#1 23582606#2 23582606#3 23582606#4 359428795 302299788#1 411913364#0 55556740#0 23893849#0 23893849#1"/>
    </vehicle>
    <vehicle id="moto80" type="motorcycle" depart="332.26" departLane="best">
        <route edges="24283548#1 24283548#2 24283548#3 24283574#0 24283574#1 24283552#0 24283552#1 24283552#2"/>
    </vehicle>
    <vehicle id="moto81" type="motorcycle" depart="336.41" departLane="best">
        <route edges="389686394#1 31692369#1 302113472 44356590 -525510189 -439842578 7976495#0 7976495#1 171984641#0 359110260#1 23893983 24283548#0 24283548#1 24283548#2 24283548#3 24283574#0 24283574#1 364789855"/>
    </vehicle>
    <vehicle id="moto82" type="motorcycle" depart="340.57" departLane="best">
        <route edges="7976586 171984639#0 171984639#1 256854467 -56725337#3 -56725337#2 -56725337#1 -56725337#0 -58064599#1 -58064599#0 -7976448#1 -7976448#0 44356591#0 44356591#1 44356591#2 411909327#0 411909327#1 7936314#0 7936314#1 411911880 286078256#0 7936303#0 7936303#1 52698705#0 -55488299 -404917415#1 -404917414 -372299410#1 -372299410#0 38215231#0 38215231#1 372299411#0 372299411#1 372299411#2 23893728#0 23893728#1 108487694 -307657355"/>
    </vehicle>
    <vehicle id="moto83" type="motorcycle" depart="344.72" departLane="best">
        <route edges="23893831#2 122905764#1 -266610220 404917414 404917415#0 55488299 52739335#0 186822215#0 24283694 55488308 190629953#0 190629953#1 7936613#0 7936613#1 363520361 113838783#0 113838783#1 243065797 363554496 363554495 31647681 42956774 186736235#0 186736235#3 186736235#4"/>
    </vehicle>
    <vehicle id="moto84" type="motorcycle" depart="348.87" departLane="best">
        <route edges="-55425343 -266610220 404917414 404917415#0 55488299 52739335#0 186822215#0 24283694 55488308 190629953#0 190629953#1 7936613#0 7936613#1 363520361 113838783#0 113838783#1 243065797 302113464 23582606#0 23582606#1 23582606#2 23582606#3 23582606#4 359428795 302299788#1 411913364#0 55556740#0 363255022 363159274 210597392#0 210597392#1 359110260#1 23893983 24283548#0 24283548#1 24283548#2 24283548#3 24283574#0 24283574#1 24283552#0 24283552#1 24283552#2 24283528#0 24283528#1 24283528#2 24283528#3 24283528#4"/>
    </vehicle>
    <vehicle id="moto85" type="motorcycle" depart="353.03" departLane="best">
        <route edges="24283548#0 24283548#1 24283548#2 24283548#3 24283574#0 24283574#1 24283552#0 24283552#1 24283559#1 24283559#2 37196673#0 37196673#1 23893976 -359110260#1 -210597392#1 -210597392#0 -363159274 -363255022 -55556740#1 37153661 325146681#0 325146681#1 13347875#0 13347875#1 13347875#2 411914875 309482435 -108489923#1 377851568 10508024#0 10508024#1 10508024#2 10508024#3 24283666 79816479#0 79816479#1 79816479#2 118721964#0"/>
    </vehicle>
    <vehicle id="moto87" type="motorcycle" depart="361.33" departLane="best">
        <route edges="24283574#0 24283574#1 24283552#0 24283552#1 24283559#1 24283559#2 37196673#0 37196673#1 23893976 -359110260#1 -210597392#1 -210597392#0 -363159274 -363255022 -55556740#1 37153661 325146681#0 325146681#1 13347875#0 13347875#1 13347875#2 46331380#0 46331380#1"/>
    </vehicle>
    <vehicle id="moto88" type="motorcycle" depart="365.49" departLane="best">