<?xml version="1.0"?>
<!-- generated on 2017-12-19 02:12:44.697420 by $Id: route2trips.py 25256 2017-07-19 06:38:15Z behrisch $ via randomTrips.py
  options: 
-->
<routes xmlns:xsi="http://www.w3.org/2001/XMLSchema-instance" xsi:noNamespaceSchemaLocation="http://sumo.dlr.de/xsd/routes_file.xsd">
    <vType id="motorcycle" speedFactor="normc(1.00,0.10,0.20,2.00)" vClass="motorcycle">
    </vType>
    <trip id="moto1" depart="4.15" departLane="best" from="122905764#2" to="-58064599#1" type="motorcycle"/>
    <trip id="moto2" depart="8.31" departLane="best" from="404917413" to="37146431" type="motorcycle"/>
    <trip id="moto3" depart="12.46" departLane="best" from="56019866" to="-302299800#0" type="motorcycle"/>
    <trip id="moto4" depart="16.61" departLane="best" from="24283548#0" to="-210597392#0" type="motorcycle"/>
    <trip id="moto5" depart="20.77" departLane="best" from="-7933104#1" to="26598858#1" type="motorcycle"/>
    <trip id="moto6" depart="24.92" departLane="best" from="-186736235#5" to="-525510189" type="motorcycle"/>
    <trip id="moto7" depart="29.07" departLane="best" from="363818322" to="286078255" type="motorcycle"/>
    <trip id="moto8" depart="33.23" departLane="best" from="-7934417" to="31584504#2" type="motorcycle"/>
    <trip id="moto9" depart="37.38" departLane="best" from="43707294" to="-117297986#0" type="motorcycle"/>
    <trip id="moto10" depart="41.53" departLane="best" from="43707072" to="372299411#0" type="motorcycle"/>
    <trip id="moto11" depart="45.69" departLane="best" from="190629953#1" to="-404917415#1" type="motorcycle"/>
    <trip id="moto12" depart="49.84" departLane="best" from="7976448#0" to="186736235#3" type="motorcycle"/>
    <trip id="moto13" depart="53.99" departLane="best" from="-278314967" to="-307657355" type="motorcycle"/>
    <trip id="moto14" depart="58.15" departLane="best" from="45985481#0" to="31622052" type="motorcycle"/>
    <trip id="moto15" depart="62.30" departLane="best" from="43707293" to="377879487#0" type="motorcycle"/>
    <trip id="moto16" depart="66.45" departLane="best" from="306097794" to="7976495#1" type="motorcycle"/>
    <trip id="moto17" depart="70.61" departLane="best" from="23893689" to="302113464" type="motorcycle"/>
    <trip id="moto19" depart="78.91" departLane="best" from="377853589" to="-23893643#2" type="motorcycle"/>
    <trip id="moto20" depart="83.07" departLane="best" from="-7976555" to="122905764#2" type="motorcycle"/>
    <trip id="moto21" depart="87.22" departLane="best" from="-264129023" to="10508024#0" type="motorcycle"/>
    <trip id="moto22" depart="91.37" departLane="best" from="-315275163" to="117297986#1" type="motorcycle"/>
    <trip id="moto23" depart="95.52" departLane="best" from="359428795" to="231374322#0" type="motorcycle"/>
    <trip id="moto24" depart="99.68" departLane="best" from="23893643#2" to="-56019866" type="motorcycle"/>
    <trip id="moto25" depart="103.83" departLane="best" from="118721964#0" to="7934417" type="motorcycle"/>
    <trip id="moto26" depart="107.98" departLane="best" from="363554496" to="31623244#1" type="motorcycle"/>
    <trip id="moto27" depart="112.14" departLane="best" from="-44194781#3" to="377879487#0" type="motorcycle"/>
    <trip id="moto28" depart="116.29" departLane="best" from="-43707293" to="23582606#3" type="motorcycle"/>
    <trip id="moto29" depart="120.44" departLane="best" from="7976631#1" to="343517461" type="motorcycle"/>
    <trip id="moto30" depart="124.60" departLane="best" from="31584504#1" to="37196673#0" type="motorcycle"/>
    <trip id="moto31" depart="128.75" departLane="best" from="45763754#0" to="411908606" type="motorcycle"/>
    <trip id="moto32" depart="132.90" departLane="best" from="-7976555" to="-210597392#1" type="motorcycle"/>
    <trip id="moto33" depart="137.06" departLane="best" from="177922838#2" to="113838783#0" type="motorcycle"/>
    <trip id="moto34" depart="141.21" departLane="best" from="522865605" to="177921036#1" type="motorcycle"/>
    <trip id="moto35" depart="145.36" departLane="best" from="37153661" to="23893687#3" type="motorcycle"/>
    <trip id="moto36" depart="149.52" departLane="best" from="7932712#3" to="24283548#3" type="motorcycle"/>
    <trip id="moto37" depart="153.67" departLane="best" from="117297986#1" to="10511797#2" type="motorcycle"/>
    <trip id="moto38" depart="157.82" departLane="best" from="31623244#0" to="56725337#2" type="motorcycle"/>
    <trip id="moto39" depart="161.98" departLane="best" from="23893810#2" to="-58064599#0" type="motorcycle"/>
    <trip id="moto40" depart="166.13" departLane="best" from="79816479#1" to="26598924#1" type="motorcycle"/>
    <trip id="moto41" depart="170.28" departLane="best" from="-278314967" to="-23893849#0" type="motorcycle"/>
    <trip id="moto42" depart="174.44" departLane="best" from="-31579388#1" to="338025192#1" type="motorcycle"/>
    <trip id="moto43" depart="178.59" departLane="best" from="43707023" to="23893831#1" type="motorcycle"/>
    <trip id="moto44" depart="182.74" departLane="best" from="-24283528#3" to="23582606#4" type="motorcycle"/>
    <trip id="moto45" depart="186.90" departLane="best" from="79816479#1" to="275777271#0" type="motorcycle"/>
    <trip id="moto46" depart="191.05" departLane="best" from="7976555" to="46331380#1" type="motorcycle"/>
    <trip id="moto47" depart="195.20" departLane="best" from="372299412#0" to="275777470#1" type="motorcycle"/>
    <trip id="moto48" depart="199.36" departLane="best" from="118721964#0" to="343517465" type="motorcycle"/>
    <trip id="moto49" depart="203.51" departLane="best" from="243064143#1" to="7936457" type="motorcycle"/>
    <trip id="moto50" depart="207.66" departLane="best" from="277741511" to="-44194781#2" type="motorcycle"/>
    <trip id="moto51" depart="211.82" departLane="best" from="7932712#2" to="466395278" type="motorcycle"/>
    <trip id="moto52" depart="215.97" departLane="best" from="177921036#0" to="343517461" type="motorcycle"/>
    <trip id="moto53" depart="220.12" departLane="best" from="338025195#1" to="-404917414" type="motorcycle"/>
    <trip id="moto54" depart="224.28" departLane="best" from="411911880" to="277741511" type="motorcycle"/>
    <trip id="moto55" depart="228.43" departLane="best" from="-108297381" to="177922838#1" type="motorcycle"/>
    <trip id="moto56" depart="232.58" departLane="best" from="522865607" to="44356586#2" type="motorcycle"/>
    <trip id="moto57" depart="236.74" departLane="best" from="177921038" to="-25199500#0" type="motorcycle"/>
    <trip id="moto58" depart="240.89" departLane="best" from="522865607" to="7936314#0" type="motorcycle"/>
    <trip id="moto59" depart="245.04" departLane="best" from="-27173072" to="243064143#1" type="motorcycle"/>
    <trip id="moto60" depart="249.20" departLane="best" from="-25199500#0" to="404917415#0" type="motorcycle"/>
    <trip id="moto61" depart="253.35" departLane="best" from="411913364#0" to="-343528767#2" type="motorcycle"/>
    <trip id="moto62" depart="257.50" departLane="best" from="26598953" to="299836710" type="motorcycle"/>
    <trip id="moto63" depart="261.66" departLane="best" from="117297986#1" to="497860197#0" type="motorcycle"/>
    <trip id="moto64" depart="265.81" departLane="best" from="24283548#0" to="-56725337#0" type="motorcycle"/>
    <trip id="moto65" depart="269.96" departLane="best" from="307657355" to="377879487#0" type="motorcycle"/>
    <trip id="moto66" depart="274.12" departLane="best" from="-56725337#2" to="177921036#0" type="motorcycle"/>
    <trip id="moto67" depart="278.27" departLane="best" from="79816479#0" to="343547062#0" type="motorcycle"/>
    <trip id="moto68" depart="282.42" departLane="best" from="24283559#0" to="26616191#1" type="motorcycle"/>
    <trip id="moto69" depart="286.57" departLane="best" from="-343517468#1" to="-7933104#0" type="motorcycle"/>
    <trip id="moto70" depart="290.73" departLane="best" from="190629953#0" to="31584504#2" type="motorcycle"/>
    <trip id="moto71" depart="294.88" departLane="best" from="10508024#0" to="-58064599#0" type="motorcycle"/>
    <trip id="moto72" depart="299.03" departLane="best" from="-7976555" to="58064599#1" type="motorcycle"/>
    <trip id="moto73" depart="303.19" departLane="best" from="46331380#1" to="-291193537" type="motorcycle"/>
    <trip id="moto74" depart="307.34" departLane="best" from="10508024#3" to="363818322" type="motorcycle"/>
    <trip id="moto75" depart="311.49" departLane="best" from="-7933104#0" to="-363159274" type="motorcycle"/>
    <trip id="moto76" depart="315.65" departLane="best" from="7934003#0" to="315275163" type="motorcycle"/>
    <trip id="moto77" depart="319.80" departLane="best" from="26598924#1" to="411913364#0" type="motorcycle"/>
    <trip id="moto78" depart="323.95" departLane="best" from="43707293" to="-45985481#2" type="motorcycle"/>
    <trip id="moto79" depart="328.11" departLane="best" from="-302113483#1" to="23893849#1" type="motorcycle"/>
    <trip id="moto80" depart="332.26" departLane="best" from="24283548#1" to="24283552#2" type="motorcycle"/>
    <trip id="moto81" depart="336.41" departLane="best" from="389686394#1" to="364789855" type="motorcycle"/>
    <trip id="moto82" depart="340.57" departLane="best" from="7976586" to="-307657355" type="motorcycle"/>
    <trip id="moto83" depart="344.72" departLane="best" from="23893831#2" to="186736235#4" type="motorcycle"/>
    <trip id="moto84" depart="348.87" departLane="best" from="-55425343" to="24283528#4" type="motorcycle"/>
    <trip id="moto85" depart="353.03" departLane="best" from="24283548#0" to="118721964#0" type="motorcycle"/>
    <trip id="moto87" depart="361.33" departLane="best" from="24283574#0" to="46331380#1" type="motorcycle"/>
    <trip id="moto88" depart="365.49" departLane="best" from="31579388#0" to="-24283528#1" type="motorcycle"/>
    <trip id="moto89" depart="369.64" departLane="best" from="79816479#2" to="44356591#0" type="motorcycle"/>
    <trip id="moto91" depart="377.95" departLane="best" from="45985481#0" to="-43707627" type="motorcycle"/>
    <trip id="moto92" depart="382.10" departLane="best" from="26616666" to="-56725337#1" type="motorcycle"/>
    <trip id="moto93" depart="386.25" departLane="best" from="23893831#1" to="-25199500#0" type="motorcycle"/>
    <trip id="moto94" depart="390.41" departLane="best" from="23893728#0" to="7976593#1" type="motorcycle"/>
    <trip id="moto95" depart="394.56" departLane="best" from="117297986#1" to="411913364#0" type="motorcycle"/>
    <trip id="moto96" depart="398.71" departLane="best" from="243064143#1" to="23893831#1" type="motorcycle"/>
    <trip id="moto97" depart="402.87" departLane="best" from="7976448#0" to="79816479#0" type="motorcycle"/>
    <trip id="moto98" depart="407.02" departLane="best" from="31584504#1" to="37590015" type="motorcycle"/>
    <trip id="moto99" depart="411.17" departLane="best" from="-404917415#1" to="13347875#1" type="motorcycle"/>
    <trip id="moto100" depart="415.33" departLane="best" from="7976495#1" to="31579388#1" type="motorcycle"/>
    <trip id="moto101" depart="419.48" departLane="best" from="307657355" to="38215485#1" type="motorcycle"/>
    <trip id="moto102" depart="423.63" departLane="best" from="-24283528#0" to="31584504#0" type="motorcycle"/>
    <trip id="moto103" depart="427.79" departLane="best" from="286078255" to="46233529" type="motorcycle"/>
    <trip id="moto104" depart="431.94" departLane="best" from="31692661#1" to="364789855" type="motorcycle"/>
    <trip id="moto105" depart="436.09" departLane="best" from="10508024#2" to="-343517468#1" type="motorcycle"/>
    <trip id="moto106" depart="440.25" departLane="best" from="55556740#0" to="10511797#2" type="motorcycle"/>
    <trip id="moto107" depart="444.40" departLane="best" from="31692661#1" to="325146681#0" type="motorcycle"/>
    <trip id="moto108" depart="448.55" departLane="best" from="24283528#3" to="31584504#0" type="motorcycle"/>
    <trip id="moto109" depart="452.71" departLane="best" from="302113483#0" to="7934417" type="motorcycle"/>
    <trip id="moto110" depart="456.86" departLane="best" from="-58064599#0" to="37589764#1" type="motorcycle"/>
    <trip id="moto112" depart="465.16" departLane="best" from="372299410#1" to="13347875#2" type="motorcycle"/>
    <trip id="moto113" depart="469.32" departLane="best" from="177922838#2" to="389686394#1" type="motorcycle"/>
    <trip id="moto114" depart="473.47" departLane="best" from="79816479#2" to="79816479#1" type="motorcycle"/>
    <trip id="moto115" depart="477.62" departLane="best" from="-25199500#2" to="-56725337#1" type="motorcycle"/>
    <trip id="moto116" depart="481.78" departLane="best" from="52739335#0" to="522865607" type="motorcycle"/>
    <trip id="moto117" depart="485.93" departLane="best" from="23893643#2" to="-43056321#0" type="motorcycle"/>
    <trip id="moto119" depart="494.24" departLane="best" from="338683089#0" to="7976631#0" type="motorcycle"/>
    <trip id="moto120" depart="498.39" departLane="best" from="37146434#0" to="-117297986#1" type="motorcycle"/>
    <trip id="moto121" depart="502.54" departLane="best" from="37196673#1" to="7936303#0" type="motorcycle"/>
    <trip id="moto122" depart="506.70" departLane="best" from="-364789855" to="-338025195#1" type="motorcycle"/>
    <trip id="moto123" depart="510.85" departLane="best" from="122905764#1" to="31622052" type="motorcycle"/>
    <trip id="moto124" depart="515.00" departLane="best" from="377882536#1" to="-55488299" type="motorcycle"/>
    <trip id="moto125" depart="519.16" departLane="best" from="359428795" to="113280420" type="motorcycle"/>
    <trip id="moto126" depart="523.31" departLane="best" from="266610215" to="58064599#1" type="motorcycle"/>
    <trip id="moto127" depart="527.46" departLane="best" from="24283548#1" to="117297986#1" type="motorcycle"/>
    <trip id="moto128" depart="531.62" departLane="best" from="-108489923#1" to="411257679#2" type="motorcycle"/>
    <trip id="moto129" depart="535.77" departLane="best" from="363159274" to="113272394#1" type="motorcycle"/>
    <trip id="moto130" depart="539.92" departLane="best" from="404917415#0" to="302113464" type="motorcycle"/>
    <trip id="moto131" depart="544.08" departLane="best" from="24283548#3" to="-177921034" type="motorcycle"/>
    <trip id="moto132" depart="548.23" departLane="best" from="-25199500#3" to="52739335#0" type="motorcycle"/>
    <trip id="moto133" depart="552.38" departLane="best" from="56725337#3" to="286078255" type="motorcycle"/>
    <trip id="moto134" depart="556.54" departLane="best" from="44356590" to="31579388#1" type="motorcycle"/>
    <trip id="moto135" depart="560.69" departLane="best" from="-38215485#1" to="-343528767#2" type="motorcycle"/>
    <trip id="moto136" depart="564.84" departLane="best" from="177921038" to="56725337#2" type="motorcycle"/>
    <trip id="moto137" depart="569.00" departLane="best" from="43707055#1" to="46331380#1" type="motorcycle"/>
    <trip id="moto138" depart="573.15" departLane="best" from="56725337#1" to="-56019866" type="motorcycle"/>
    <trip id="moto139" depart="577.30" departLane="best" from="108489923#0" to="-31579388#0" type="motorcycle"/>
    <trip id="moto140" depart="581.46" departLane="best" from="42956774" to="55425343" type="motorcycle"/>
    <trip id="moto141" depart="585.61" departLane="best" from="23893849#0" to="325146681#1" type="motorcycle"/>
    <trip id="moto142" depart="589.76" departLane="best" from="-404917415#1" to="7933944" type="motorcycle"/>
    <trip id="moto144" depart="598.07" departLane="best" from="43707627" to="52698705#0" type="motorcycle"/>
    <trip id="moto145" depart="602.22" departLane="best" from="-186736235#4" to="377882530" type="motorcycle"/>
    <trip id="moto146" depart="606.38" departLane="best" from="186822212#1" to="7933944" type="motorcycle"/>
    <trip id="moto147" depart="610.53" departLane="best" from="43707065#1" to="466395276#0" type="motorcycle"/>
    <trip id="moto149" depart="618.84" departLane="best" from="497860197#0" to="46331380#0" type="motorcycle"/>
    <trip id="moto150" depart="622.99" departLane="best" from="-7934417" to="43707294" type="motorcycle"/>
    <trip id="moto151" depart="627.14" departLane="best" from="43707055#0" to="-7976448#0" type="motorcycle"/>
    <trip id="moto152" depart="631.30" departLane="best" from="-186736235#4" to="-497860197#0" type="motorcycle"/>
    <trip id="moto153" depart="635.45" departLane="best" from="186822211#0" to="466395276#0" type="motorcycle"/>
    <trip id="moto154" depart="639.60" departLane="best" from="7976495#0" to="118721964#0" type="motorcycle"/>
    <trip id="moto155" depart="643.76" departLane="best" from="363472323" to="23893728#0" type="motorcycle"/>
    <trip id="moto156" depart="647.91" departLane="best" from="7976556#3" to="275777470#1" type="motorcycle"/>
    <trip id="moto157" depart="652.06" departLane="best" from="7936303#1" to="-338025195#1" type="motorcycle"/>
    <trip id="moto158" depart="656.21" departLane="best" from="7976555" to="-44194781#2" type="motorcycle"/>
    <trip id="moto159" depart="660.37" departLane="best" from="-31579388#1" to="23893983" type="motorcycle"/>
    <trip id="moto160" depart="664.52" departLane="best" from="389686394#1" to="177921036#1" type="motorcycle"/>
    <trip id="moto161" depart="668.67" departLane="best" from="338025192#1" to="26598953" type="motorcycle"/>
    <trip id="moto162" depart="672.83" departLane="best" from="113272394#1" to="372299412#1" type="motorcycle"/>
    <trip id="moto164" depart="681.13" departLane="best" from="307657355" to="377851568" type="motorcycle"/>
    <trip id="moto165" depart="685.29" departLane="best" from="404917415#0" to="363818322" type="motorcycle"/>
    <trip id="moto166" depart="689.44" departLane="best" from="23893643#0" to="-277741511" type="motorcycle"/>
    <trip id="moto167" depart="693.59" departLane="best" from="177922838#1" to="45763754#1" type="motorcycle"/>
    <trip id="moto168" depart="697.75" departLane="best" from="38215231#0" to="13347875#2" type="motorcycle"/>
    <trip id="moto169" depart="701.90" departLane="best" from="177921854#1" to="23893754#2" type="motorcycle"/>
    <trip id="moto170" depart="706.05" departLane="best" from="23893831#2" to="13347875#0" type="motorcycle"/>
    <trip id="moto171" depart="710.21" departLane="best" from="-359110260#1" to="23893810#2" type="motorcycle"/>
    <trip id="moto172" depart="714.36" departLane="best" from="7936303#1" to="37146431" type="motorcycle"/>
    <trip id="moto173" depart="718.51" departLane="best" from="56725337#3" to="31692661#0" type="motorcycle"/>
    <trip id="moto174" depart="722.67" departLane="best" from="177921036#1" to="286078256#0" type="motorcycle"/>
    <trip id="moto175" depart="726.82" departLane="best" from="-108297381" to="122905764#1" type="motorcycle"/>
    <trip id="moto176" depart="730.97" departLane="best" from="24283552#0" to="31579388#1" type="motorcycle"/>
    <trip id="moto177" depart="735.13" departLane="best" from="24283559#2" to="-56725337#1" type="motorcycle"/>
    <trip id="moto178" depart="739.28" departLane="best" from="26598924#1" to="56725337#3" type="motorcycle"/>
    <trip id="moto179" depart="743.43" departLane="best" from="43707055#1" to="-439842578" type="motorcycle"/>
    <trip id="moto180" depart="747.59" departLane="best" from="-27173072" to="26616191#0" type="motorcycle"/>
    <trip id="moto181" depart="751.74" departLane="best" from="359110260#1" to="186736235#0" type="motorcycle"/>
    <trip id="moto182" depart="755.89" departLane="best" from="44194781#0" to="389686394#1" type="motorcycle"/>
    <trip id="moto183" depart="760.05" departLane="best" from="372299411#0" to="-7933104#0" type="motorcycle"/>
    <trip id="moto185" depart="768.35" departLane="best" from="108297381" to="24283574#0" type="motorcycle"/>
    <trip id="moto186" depart="772.51" departLane="best" from="45985481#1" to="-291193537" type="motorcycle"/>
    <trip id="moto187" depart="776.66" departLane="best" from="24283528#0" to="338025195#0" type="motorcycle"/>
    <trip id="moto188" depart="780.81" departLane="best" from="-55556740#1" to="372299410#1" type="motorcycle"/>
    <trip id="moto189" depart="784.97" departLane="best" from="275777271#1" to="10511797#1" type="motorcycle"/>
    <trip id="moto190" depart="789.12" departLane="best" from="37153661" to="-117297986#0" type="motorcycle"/>
    <trip id="moto191" depart="793.27" departLane="best" from="411257679#1" to="411257679#2" type="motorcycle"/>
    <trip id="moto192" depart="797.43" departLane="best" from="-45763754#1" to="7936613#1" type="motorcycle"/>
    <trip id="moto193" depart="801.58" departLane="best" from="302113472" to="-24283528#0" type="motorcycle"/>
    <trip id="moto194" depart="805.73" departLane="best" from="243065797" to="43707055#0" type="motorcycle"/>
    <trip id="moto195" depart="809.89" departLane="best" from="372299409#1" to="7976631#0" type="motorcycle"/>
    <trip id="moto196" depart="814.04" departLane="best" from="31692661#1" to="7936346#0" type="motorcycle"/>
    <trip id="moto197" depart="818.19" departLane="best" from="55556740#0" to="31692369#1" type="motorcycle"/>
    <trip id="moto198" depart="822.35" departLane="best" from="38215231#0" to="26598858#1" type="motorcycle"/>
    <trip id="moto200" depart="830.65" departLane="best" from="56725337#0" to="38215231#1" type="motorcycle"/>
    <trip id="moto201" depart="834.80" departLane="best" from="26598953" to="113272394#0" type="motorcycle"/>
    <trip id="moto202" depart="838.96" departLane="best" from="108487694" to="338683089#1" type="motorcycle"/>
    <trip id="moto203" depart="843.11" departLane="best" from="411913364#0" to="266610215" type="motorcycle"/>
    <trip id="moto204" depart="847.26" departLane="best" from="343528767#1" to="117297985#1" type="motorcycle"/>
    <trip id="moto205" depart="851.42" departLane="best" from="-25199500#3" to="122905764#1" type="motorcycle"/>
    <trip id="moto206" depart="855.57" departLane="best" from="122905764#0" to="177921854#1" type="motorcycle"/>
    <trip id="moto207" depart="859.72" departLane="best" from="307657355" to="-372299410#1" type="motorcycle"/>
    <trip id="moto208" depart="863.88" departLane="best" from="10508024#0" to="372299410#0" type="motorcycle"/>
    <trip id="moto209" depart="868.03" departLane="best" from="377879487#0" to="-264129023" type="motorcycle"/>
    <trip id="moto210" depart="872.18" departLane="best" from="24283528#1" to="-56019866" type="motorcycle"/>
    <trip id="moto211" depart="876.34" departLane="best" from="24283528#3" to="58064599#1" type="motorcycle"/>
    <trip id="moto212" depart="880.49" departLane="best" from="31623244#0" to="372299410#1" type="motorcycle"/>
    <trip id="moto213" depart="884.64" departLane="best" from="46240381#1" to="407873338" type="motorcycle"/>
    <trip id="moto214" depart="888.80" departLane="best" from="23893728#0" to="-117297986#0" type="motorcycle"/>
    <trip id="moto216" depart="897.10" departLane="best" from="46240381#0" to="7936457" type="motorcycle"/>
    <trip id="moto217" depart="901.26" departLane="best" from="24283528#2" to="38215485#0" type="motorcycle"/>
    <trip id="moto218" depart="905.41" departLane="best" from="315218180" to="31622052" type="motorcycle"/>
    <trip id="moto219" depart="909.56" departLane="best" from="-7934417" to="-58064599#0" type="motorcycle"/>
    <trip id="moto220" depart="913.72" departLane="best" from="24283552#2" to="-210597392#0" type="motorcycle"/>
    <trip id="moto221" depart="917.87" departLane="best" from="186822215#0" to="37146434#0" type="motorcycle"/>
    <trip id="moto222" depart="922.02" departLane="best" from="23893849#0" to="-43707627" type="motorcycle"/>
    <trip id="moto223" depart="926.18" departLane="best" from="264129023" to="-343528767#2" type="motorcycle"/>
    <trip id="moto224" depart="930.33" departLane="best" from="23893810#0" to="309482435" type="motorcycle"/>
    <trip id="moto225" depart="934.48" departLane="best" from="-186736235#5" to="343517468#1" type="motorcycle"/>
    <trip id="moto226" depart="938.64" departLane="best" from="-364789855" to="24283552#0" type="motorcycle"/>
    <trip id="moto227" depart="942.79" departLane="best" from="-23893849#0" to="23582606#2" type="motorcycle"/>
    <trip id="moto228" depart="946.94" departLane="best" from="411909327#1" to="23582606#2" type="motorcycle"/>
    <trip id="moto229" depart="951.10" departLane="best" from="113272394#0" to="-302113483#1" type="motorcycle"/>
    <trip id="moto230" depart="955.25" departLane="best" from="-186736235#2" to="277741511" type="motorcycle"/>
    <trip id="moto231" depart="959.40" departLane="best" from="79816479#2" to="186822212#0" type="motorcycle"/>
    <trip id="moto232" depart="963.56" departLane="best" from="363818322" to="411911880" type="motorcycle"/>
    <trip id="moto233" depart="967.71" departLane="best" from="7936457" to="-525510189" type="motorcycle"/>
    <trip id="moto234" depart="971.86" departLane="best" from="-186736235#2" to="-404917414" type="motorcycle"/>
    <trip id="moto235" depart="976.02" departLane="best" from="31584766#1" to="-56725337#3" type="motorcycle"/>
    <trip id="moto236" depart="980.17" departLane="best" from="377851568" to="407873338" type="motorcycle"/>
    <trip id="moto237" depart="984.32" departLane="best" from="-44194781#1" to="31622095" type="motorcycle"/>
    <trip id="moto238" depart="988.48" departLane="best" from="407497545#1" to="-338025195#1" type="motorcycle"/>
    <trip id="moto239" depart="992.63" departLane="best" from="44194781#0" to="7976483" type="motorcycle"/>
    <trip id="moto240" depart="996.78" departLane="best" from="177922838#0" to="37146431" type="motorcycle"/>
</routes>
