<?xml version="1.0" encoding="UTF-8"?>

<!-- generated on 12/19/17 02:12:42 by SUMO duarouter Version 0.31.0
<?xml version="1.0" encoding="UTF-8"?>

<configuration xmlns:xsi="http://www.w3.org/2001/XMLSchema-instance" xsi:noNamespaceSchemaLocation="http://sumo.dlr.de/xsd/duarouterConfiguration.xsd">

    <input>
        <net-file value="osm.net.xml"/>
        <route-files value="osm.bus.trips.xml"/>
    </input>

    <output>
        <output-file value="osm.bus.rou.xml"/>
    </output>

    <processing>
        <ignore-errors value="true"/>
    </processing>

    <time>
        <begin value="0"/>
        <end value="1000.0"/>
    </time>

    <report>
        <no-warnings value="true"/>
        <no-step-log value="true"/>
    </report>

</configuration>
-->

<routes xmlns:xsi="http://www.w3.org/2001/XMLSchema-instance" xsi:noNamespaceSchemaLocation="http://sumo.dlr.de/xsd/routes_file.xsd">
    <vType id="bus" vClass="bus"/>
    <vehicle id="bus0" type="bus" depart="0.00" departLane="best">
        <route edges="343517461 23893687#3 -411914875 -411914874 -13347875#1 -13347875#0 -325146681#2 -325146681#0 -37153661 -411913364#1 -302299788#1 -302299788#0 -23582606#4 -23582606#3 -23582606#2 -23582606#1 -23582606#0 44356591#0 44356591#1 44356591#2 411909327#0 411909327#1 7936457 113838783#0 113838783#1 243065797 363554496 363554495 31647681 42956774 186736235#0 186736235#3 186736235#4 -186736235#4"/>
    </vehicle>
    <vehicle id="bus1" type="bus" depart="5.74" departLane="best">
        <route edges="-7934417 7932712#1 7932712#2 7932712#3 372299409#0 372299409#1 38215231#0 38215231#1 372299411#0 372299411#1 372299411#2 372299411#3 343547062#0 24283666 79816479#0 79816479#1 79816479#2 118721964#0 118721964#2 -37153661 55556740#0 363255022 363159274 -363159274 466395278 -43707627"/>
    </vehicle>
    <vehicle id="bus2" type="bus" depart="11.49" departLane="best">
        <route edges="-186736159 44194781#3 42956774 117297986#1 37190757 302113464 23582606#0 23582606#1 23582606#2 23582606#3 23582606#4 359428795 302299788#1 411913364#0 -411913364#1"/>
    </vehicle>
    <vehicle id="bus3" type="bus" depart="17.23" departLane="best">
        <route edges="343528767#0 343528767#1 343528767#2 7976631#1 7976631#2 -338025195#1 -338025195#0 338025192#0 338025192#1 7976486#0 7976486#1 171984639#0 171984639#1 256854467"/>
    </vehicle>
    <vehicle id="bus4" type="bus" depart="22.98" departLane="best">
        <route edges="-45763754#1 -45763754#0 -497860197#1 -497860197#0 26598953 -56725337#1 -56725337#0 -58064599#1 -58064599#0 -7976448#1 -7976448#0 44356591#0 44356591#1 44356591#2 411909327#0 411909327#1 7936314#0 7936314#1 411911880 286078256#0 7936303#0 7936303#1 7936303#2 186822211#0 186822215#0 24283694 413528724 377882536#0 377882536#1 363818322 -25199500#1 278314967"/>
    </vehicle>
    <vehicle id="bus5" type="bus" depart="28.72" departLane="best">
        <route edges="43707023 -343517468#0 171984639#0 171984639#1 302113472 44356590 26598924#0 26598924#1 -497860197#1 -497860197#0 31647681 42956774 117297986#1 -117297986#1"/>
    </vehicle>
    <vehicle id="bus8" type="bus" depart="45.96" departLane="best">
        <route edges="205274906 37554816#1 7932712#3 372299409#0 372299409#1 38215231#0 38215231#1 372299411#0 372299411#1 372299411#2 372299411#3 343547062#0 24283666 79816479#0 79816479#1 79816479#2 118721964#0 118721964#2 -37153661 55556740#0 363255022 363159274 210597392#0 210597392#1 7976486#0 7976486#1 171984639#0 171984639#1 302113472 44356590 26598924#0 26598924#1"/>
    </vehicle>
    <vehicle id="bus9" type="bus" depart="51.70" departLane="best">
        <route edges="45985481#0 45985481#1 7936613#0 7936613#1 363520361 113838783#0 113838783#1 243065797 302113464 23582606#0 23582606#1 23582606#2 23582606#3 23582606#4 359428795 302299788#1 411913364#0 55556740#0 363255022 363159274 210597392#0 210597392#1 359110260#1 23893983 -277741511 -302299800#1 275777271#0 275777271#1 275777470#0"/>
    </vehicle>
    <vehicle id="bus10" type="bus" depart="57.45" departLane="best">
        <route edges="37554816#0 37554816#1 7932712#3 372299409#0 372299409#1 38215231#0 38215231#1 372299411#0 372299411#1 372299411#2 372299411#3 343547062#0 24283666 79816479#0 79816479#1 79816479#2 118721964#0 118721964#2 -37153661 -411913364#1 -302299788#1 -302299788#0 -23582606#4 -23582606#3 -23582606#2 -23582606#1 -23582606#0"/>
    </vehicle>
    <vehicle id="bus11" type="bus" depart="63.19" departLane="best">
        <route edges="-45985481#2 45985481#1 7936613#0 7936613#1 363520361 113838783#0 113838783#1 243065797 302113464 7976448#0 7976448#1 58064599#0 58064599#1 56725337#0 56725337#1 56725337#2 56725337#3 286078255 44356590 -525510189 -439842578 7976555 -7976555"/>
    </vehicle>
    <vehicle id="bus12" type="bus" depart="68.94" departLane="best">
        <route edges="-24283528#3 -24283528#2 -24283528#1 -24283528#0 24283559#0 24283559#1 24283559#2 37196673#0 37196673#1 23893976 -359110260#1 7976486#0 7976486#1 171984639#0 171984639#1 302113472 44356590 26598924#0 26598924#1 31622095 -44194781#0"/>
    </vehicle>
    <vehicle id="bus13" type="bus" depart="74.68" departLane="best">
        <route edges="-25199500#3 -25199500#2 -25199500#1 -25199500#0 302113483#1 302113468 10529189#0 24283694 55488308 190629953#0 190629953#1 7936613#0 7936613#1 363520361 113838783#0 113838783#1 243065797 302113464 7976448#0 7976448#1 58064599#0 58064599#1 56725337#0 56725337#1 56725337#2 56725337#3 -56725337#3"/>
    </vehicle>
    <vehicle id="bus14" type="bus" depart="80.43" departLane="best">
        <route edges="343528767#0 343528767#1 343528767#2 7976631#1 7976631#2 -338025195#1 -338025195#0 338025192#0 338025192#1 7976486#0 7976486#1 171984639#0 171984639#1 302113472 44356590 -525510189 -439842578 7976555 315275163"/>
    </vehicle>
    <vehicle id="bus15" type="bus" depart="86.17" departLane="best">
        <route edges="-343528767#2 343528767#2 7976631#1 7976631#2 -338025195#1 -338025195#0 338025192#0 338025192#1 7976486#0 7976486#1 171984639#0 171984639#1 302113472 44356590 26598924#0 26598924#1 -497860197#1 -497860197#0 31647681 -44194781#3 186736159"/>
    </vehicle>
    <vehicle id="bus16" type="bus" depart="91.92" departLane="best">
        <route edges="307657355 117297985#0 117297985#1 7932712#2 7932712#3 372299409#0 372299409#1 38215231#0 38215231#1 372299411#0 372299411#1 372299411#2 372299411#3 343547062#0 24283666 23893810#0 23893810#1 23893810#2 177922838#0 177922838#1 177922838#2 338683089#1"/>
    </vehicle>
    <vehicle id="bus17" type="bus" depart="97.66" departLane="best">
        <route edges="44194781#1 44194781#2 44194781#3 42956774 117297986#1 37190757 302113464 44356591#0 44356591#1 44356591#2 411909327#0 411909327#1 7936314#0 7936314#1 411911880 286078256#0 7936303#0 7936303#1 52698705#0 -55488299 -404917415#1 -404917414 -372299410#1 -372299410#0 38215231#0 38215231#1"/>
    </vehicle>
    <vehicle id="bus19" type="bus" depart="109.15" departLane="best">
        <route edges="122905764#1 -266610220 -372299410#1 -372299410#0 38215231#0 38215231#1 372299411#0 372299411#1 372299411#2 372299411#3 343547062#0 24283666 79816479#0 79816479#1 79816479#2 118721964#0 118721964#2 325146681#0 325146681#1 13347875#0 13347875#1 13347875#2 411914875 309482435 -264129023 -56019866"/>
    </vehicle>
    <vehicle id="bus20" type="bus" depart="114.90" departLane="best">
        <route edges="-439842578 7976495#0 7976495#1 171984641#0 -210597392#1 -210597392#0 -363159274 -363255022 -55556740#1 37153661 325146681#0 325146681#1 13347875#0 13347875#1 13347875#2 411914875 309482435 -108489923#1 377851568 7933944 7934417"/>
    </vehicle>
    <vehicle id="bus21" type="bus" depart="120.64" departLane="best">
        <route edges="343547062#0 24283666 23893810#0 23893810#1 23893810#2 411908606 7936457 113838783#0 113838783#1 243065797 363554496 363554495 31647681 42956774 186736235#0 186736235#3 186736235#4 186736235#5 186736235#7"/>
    </vehicle>
    <vehicle id="bus22" type="bus" depart="126.39" departLane="best">
        <route edges="56725337#3 -56725337#3 -56725337#2 -56725337#1 -56725337#0 -58064599#1 -58064599#0 -7976448#1 -7976448#0 44356591#0 44356591#1 44356591#2 411909327#0 411909327#1 7936314#0 7936314#1 46233529 23893754#0 23893754#1 23893754#2 23893754#3"/>
    </vehicle>
    <vehicle id="bus23" type="bus" depart="132.13" departLane="best">
        <route edges="-7933104#1 7933104#1 122905764#0 122905764#1 -266610220 404917414 404917415#0 55488299 52739335#0 186822215#0 24283694 55488308 190629953#0 190629953#1 -45985481#2 -45985481#0"/>
    </vehicle>
    <vehicle id="bus24" type="bus" depart="137.88" departLane="best">
        <route edges="31584766#0 31584766#1 7976631#2 -38215485#1 -38215485#0 23893687#0 23893687#2 23893687#3 309482435 -108489923#1 377851568 10508024#0 10508024#1 10508024#2 10508024#3 24283666 23893810#0 23893810#1 23893831#1 23893831#2 122905764#1 55425343"/>
    </vehicle>
    <vehicle id="bus25" type="bus" depart="143.62" departLane="best">
        <route edges="79816479#1 79816479#2 118721964#0 118721964#2 -37153661 55556740#0 363255022 363159274 210597392#0 210597392#1 359110260#1 23893983 24283548#0 24283548#1 24283548#2 24283548#3 24283574#0 24283574#1 24283552#0"/>
    </vehicle>
    <vehicle id="bus26" type="bus" depart="149.37" departLane="best">
        <route edges="-25199500#1 -25199500#0 302113483#1 302113468 10529189#0 24283694 55488308 190629953#0 190629953#1 7936613#0 7936613#1 363520361 113838783#0 113838783#1 243065797 302113464 23582606#0 -23582606#0"/>
    </vehicle>
    <vehicle id="bus27" type="bus" depart="155.11" departLane="best">
        <route edges="-27173072 10508024#1 10508024#2 10508024#3 24283666 79816479#0 79816479#1 79816479#2 118721964#0 118721964#2 -37153661 55556740#0 363255022 363159274 210597392#0 210597392#1 359110260#1 23893983 24283548#0 24283548#1 24283548#2 24283548#3 31579378"/>
    </vehicle>
    <vehicle id="bus28" type="bus" depart="160.86" departLane="best">
        <route edges="42835112 37190757 302113464 44356591#0 44356591#1 44356591#2 411909327#0 411909327#1 7936314#0 7936314#1 411911880 286078256#0 7936303#0 7936303#1 7936303#2 186822211#0 186822215#0 24283694 413528724 363472323 37146431 -23287517 23287517"/>
    </vehicle>
    <vehicle id="bus29" type="bus" depart="166.60" departLane="best">
        <route edges="-23893643#2 24283483 343517465 343517461 23893687#3 -411914875 -411914874 -13347875#1 -13347875#0 -325146681#2 -325146681#0 -37153661 -411913364#1 -302299788#1 -302299788#0 -23582606#4 -23582606#3 -23582606#2 -23582606#1 -23582606#0 44356591#0 44356591#1 44356591#2 411909327#0 411909327#1 7936457 113838783#0 113838783#1 243065797 363554496 363554495 31647681 -44194781#3 186736159"/>
    </vehicle>
    <vehicle id="bus30" type="bus" depart="172.34" departLane="best">
        <route edges="-113280420 -25199500#1 -25199500#0 302113483#1 302113468 10529189#0 24283694 55488308 190629953#0 190629953#1 7936613#0 7936613#1 363520361 113838783#0 113838783#1 243065797 302113464 23582606#0 23582606#1 23582606#2 23582606#3 23582606#4 359428795 302299788#1 411913364#0 55556740#0 363255022 363159274 210597392#0 210597392#1 359110260#1 23893983 24283548#0 24283548#1 24283548#2 24283548#3 24283574#0 24283574#1 364789855"/>
    </vehicle>
    <vehicle id="bus31" type="bus" depart="178.09" departLane="best">
        <route edges="372299409#0 372299409#1 372299410#0 372299410#1 404917414 404917415#0 55488299 52739335#0 186822215#0 24283694 413528724 377882536#0 377882536#1 363818322 25199500#2 25199500#3"/>
    </vehicle>
    <vehicle id="bus32" type="bus" depart="183.83" departLane="best">
        <route edges="-7933104#1 -7933104#0 372299411#2 372299411#3 343547062#0 24283666 79816479#0 79816479#1 79816479#2 118721964#0 118721964#2 -37153661 55556740#0 363255022 31584504#0 31584504#1 31584504#2"/>
    </vehicle>
    <vehicle id="bus33" type="bus" depart="189.58" departLane="best">
        <route edges="-27173072 10508024#1 10508024#2 10508024#3 24283666 79816479#0 79816479#1 79816479#2 118721964#0 118721964#2 -37153661 -411913364#1 -302299788#1 -302299788#0 -23582606#4 23582606#4"/>
    </vehicle>
    <vehicle id="bus34" type="bus" depart="195.32" departLane="best">
        <route edges="24283559#1 24283559#2 37196673#0 37196673#1 23893976 -359110260#1 7976486#0 7976486#1 171984639#0 171984639#1 256854467 -56725337#3 -56725337#2 -56725337#1 -56725337#0 -58064599#1 -58064599#0 -7976448#1 -7976448#0 44356591#0 44356591#1 44356591#2 411909327#0 411909327#1 7936314#0 7936314#1 411911880 286078256#0 7936303#0 7936303#1"/>
    </vehicle>
    <vehicle id="bus35" type="bus" depart="201.07" departLane="best">
        <route edges="56725337#1 -56725337#1 -56725337#0 -58064599#1 -58064599#0 -7976448#1 -7976448#0 44356591#0 44356591#1 44356591#2 411909327#0 411909327#1 7936314#0 7936314#1 411911880 286078256#0 7936303#0 7936303#1 7936303#2 186822211#0 186822215#0 24283694 55488308 190629953#0 190629953#1 -45985481#2 45985481#1"/>
    </vehicle>
    <vehicle id="bus36" type="bus" depart="206.81" departLane="best">
        <route edges="113272394#0 113272394#1 10529189#0 24283694 55488308 190629953#0 190629953#1 7936613#0 7936613#1 363520361 113838783#0 113838783#1 243065797 302113464 23582606#0 23582606#1 23582606#2 23582606#3 23582606#4 359428795 302299788#1 411913364#0 55556740#0 363255022 31584504#0 31584504#1"/>
    </vehicle>
    <vehicle id="bus37" type="bus" depart="212.56" departLane="best">
        <route edges="31623244#0 31623244#1 7936613#0 7936613#1 363520361 113838783#0 113838783#1 243065797 302113464 23582606#0 23582606#1 23582606#2 23582606#3 23582606#4 359428795 302299788#1 411913364#0 37153661 325146681#0 325146681#1 -325146681#2"/>
    </vehicle>
    <vehicle id="bus38" type="bus" depart="218.30" departLane="best">
        <route edges="411257679#1 411257679#2 -23893643#2 24283483 343517465 343517461 23893687#3 309482435 -108489923#1 377851568 7933944 7932712#1 7932712#2 7932712#3 372299409#0 372299409#1 372299410#0 372299410#1 404917414 404917415#0 55488299 52739335#0 186822215#0 24283694 413528724 377882536#0 377882536#1 363818322 25199500#2 25199500#3"/>
    </vehicle>
    <vehicle id="bus39" type="bus" depart="224.05" departLane="best">
        <route edges="413528723#0 377882528 377882530 37146434#0 190629953#0 190629953#1 7936613#0 7936613#1 363520361 113838783#0 113838783#1 243065797"/>
    </vehicle>
    <vehicle id="bus40" type="bus" depart="229.79" departLane="best">
        <route edges="-108297381 407497545#1 464696418#0 377851569#0 377851569#1 377851568 7933944 7932712#1 7932712#2 7932712#3 372299409#0 372299409#1 372299410#0 372299410#1 404917414 404917415#0 55488299 52739335#0 186822215#0 24283694 413528724 377882536#0 377882536#1 363818322 113280420"/>
    </vehicle>
    <vehicle id="bus41" type="bus" depart="235.54" departLane="best">
        <route edges="464696418#0 377851569#0 377851569#1 377851568 10508024#0 10508024#1 10508024#2 10508024#3 24283666 79816479#0 79816479#1 79816479#2 118721964#0 118721964#2 -37153661 55556740#0 363255022 31584504#0 43707065#0"/>
    </vehicle>
    <vehicle id="bus42" type="bus" depart="241.28" departLane="best">
        <route edges="264129023 -108489923#1 377851568 10508024#0 10508024#1 10508024#2 10508024#3 24283666 79816479#0 79816479#1 79816479#2 118721964#0 118721964#2 -37153661 55556740#0 363255022 363159274 210597392#0 210597392#1 7976486#0 7976486#1 171984639#0 171984639#1 302113472 44356590 26598924#0"/>
    </vehicle>
    <vehicle id="bus45" type="bus" depart="258.52" departLane="best">
        <route edges="-278314967 -25199500#0 302113483#1 302113468 10529189#0 24283694 55488308 190629953#0 190629953#1 7936613#0 7936613#1 363520361 113838783#0 113838783#1 243065797 302113464 7976448#0 7976448#1 58064599#0 58064599#1 56725337#0 56725337#1 56725337#2 56725337#3 286078255 44356590 -525510189 -439842578"/>
    </vehicle>
    <vehicle id="bus46" type="bus" depart="264.26" departLane="best">
        <route edges="177921037 -23893849#0 -55556740#1 -411913364#1 -302299788#1 -302299788#0 -23582606#4 -23582606#3 -23582606#2 -23582606#1 -23582606#0 44356591#0 44356591#1 44356591#2 411909327#0 411909327#1 7936314#0 7936314#1 411911880 286078256#0 7936303#0 7936303#1 7936303#2 186822211#0 186822215#0 24283694 413528724 377882536#0 377882536#1 363818322 -25199500#1 278314967"/>
    </vehicle>
    <vehicle id="bus47" type="bus" depart="270.01" departLane="best">
        <route edges="-46233529 411911880 26598858#1 7936613#1 363520361 113838783#0 113838783#1 243065797 302113464 23582606#0 23582606#1 23582606#2 23582606#3 23582606#4 359428795 302299788#1 411913364#0 55556740#0 363255022 363159274 -363159274 466395278 -43707627"/>
    </vehicle>
    <vehicle id="bus48" type="bus" depart="275.75" departLane="best">
        <route edges="-23893849#1 -23893849#0 363255022 363159274 210597392#0 210597392#1 359110260#1 23893983 24283548#0 24283548#1 24283548#2 24283548#3 24283574#0 -231374322#1 -231374322#0 31579388#1"/>
    </vehicle>
    <vehicle id="bus49" type="bus" depart="281.50" departLane="best">
        <route edges="45763754#0 -45763754#0 -497860197#1 -497860197#0 26598953 -56725337#1 -56725337#0 -58064599#1 -58064599#0 -7976448#1 -7976448#0 44356591#0 44356591#1 44356591#2 411909327#0 411909327#1 7936314#0 7936314#1 411911880 286078256#0 7936303#0 7936303#1 7936303#2 186822211#0 186822215#0 24283694 413528724 377882536#0 377882536#1 363818322 -25199500#1"/>
    </vehicle>
    <vehicle id="bus50" type="bus" depart="287.24" departLane="best">
        <route edges="-55488299 55488299 52739335#0 186822215#0 24283694 55488308 190629953#0 190629953#1 7936613#0 7936613#1 363520361 113838783#0 113838783#1 243065797 302113464 7976448#0 7976448#1 58064599#0 58064599#1 56725337#0 -56725337#0 27173012 31692661#0 31692661#1"/>
    </vehicle>
    <vehicle id="bus51" type="bus" depart="292.99" departLane="best">
        <route edges="-44194781#2 44194781#2 44194781#3 42956774 117297986#1 37190757 302113464 23582606#0 23582606#1 23582606#2 23582606#3 23582606#4 359428795 302299788#1 411913364#0 55556740#0 363255022 363159274 210597392#0 210597392#1 359110260#1 23893983 -277741511 -302299800#1 275777271#0 275777271#1 -31579377"/>
    </vehicle>
    <vehicle id="bus54" type="bus" depart="310.22" departLane="best">
        <route edges="-25199500#3 -25199500#2 -25199500#1 -25199500#0 302113483#1 302113468 10529189#0 24283694 55488308 190629953#0 190629953#1 7936613#0 7936613#1 363520361 113838783#0 113838783#1 243065797 302113464 23582606#0 23582606#1"/>
    </vehicle>
    <vehicle id="bus55" type="bus" depart="315.97" departLane="best">
        <route edges="7976556#2 7976556#3 23893976 -359110260#1 7976486#0 7976486#1 171984639#0 171984639#1 256854467 -56725337#3 -56725337#2 -56725337#1 -56725337#0 -58064599#1 -58064599#0 -7976448#1 -7976448#0 44356591#0 44356591#1 44356591#2 411909327#0 411909327#1 7936314#0 7936314#1 411911880 286078256#0 7936303#0 7936303#1 7936303#2 186822211#0 37590015 -302113468 -334883453 -291193537 291193537 334883453 -302113483#1"/>
    </vehicle>
    <vehicle id="bus56" type="bus" depart="321.71" departLane="best">
        <route edges="-390044752 31623244#1 7936346#0 7936303#0 7936303#1 52698705#0 -55488299 -404917415#1 -404917414 -372299410#1 -372299410#0 38215231#0 38215231#1 372299411#0 372299411#1 372299411#2 23893728#0"/>
    </vehicle>
    <vehicle id="bus57" type="bus" depart="327.46" departLane="best">
        <route edges="-58064599#1 58064599#1 56725337#0 -56725337#0 27173012 522865607 522865605 359428795 302299788#1 411913364#0 37153661 325146681#0 325146681#1 13347875#0 13347875#1 13347875#2 411914875 309482435 -108489923#1 377851568 7933944 7932712#1"/>
    </vehicle>
    <vehicle id="bus58" type="bus" depart="333.20" departLane="best">
        <route edges="306097794 23893687#2 23893687#3 -411914875 -411914874 -13347875#1 -13347875#0 -325146681#2 -325146681#0 -37153661 -411913364#1 -302299788#1 -302299788#0 -23582606#4 -23582606#3 -23582606#2"/>
    </vehicle>
    <vehicle id="bus59" type="bus" depart="338.94" departLane="best">
        <route edges="7976495#0 7976495#1 171984641#0 -210597392#1 -210597392#0 -363159274 -363255022 -55556740#1 37153661 325146681#0 325146681#1 13347875#0 13347875#1 13347875#2 411914875 309482435 -108489923#1 377851568 7933944 7932712#1 7932712#2"/>
    </vehicle>
    <vehicle id="bus62" type="bus" depart="356.18" departLane="best">
        <route edges="24283559#2 37196673#0 37196673#1 23893976 -359110260#1 7976486#0 7976486#1 171984639#0 171984639#1 256854467 -56725337#3 -56725337#2 -56725337#1 -56725337#0 -58064599#1 -58064599#0 -7976448#1 -7976448#0 44356591#0 44356591#1 44356591#2 411909327#0 411909327#1 7936314#0 7936314#1 411911880 286078256#0 7936303#0 7936303#1 7936303#2 186822211#0 186822215#0 24283694 413528724 363472323 37146431 -23287517 23287517"/>
    </vehicle>
    <vehicle id="bus63" type="bus" depart="361.92" departLane="best">
        <route edges="7936613#0 7936613#1 363520361 113838783#0 113838783#1 243065797 302113464 23582606#0 23582606#1 23582606#2 23582606#3 23582606#4 359428795 302299788#1 411913364#0 37153661 325146681#0 325146681#1 13347875#0 13347875#1 13347875#2 411914875 309482435 -108489923#1 377851568 10508024#0 10508024#1 10508024#2 10508024#3 24283666 79816479#0"/>
    </vehicle>
    <vehicle id="bus64" type="bus" depart="367.67" departLane="best">
        <route edges="307657355 117297985#0 117297985#1 7932712#2 7932712#3 372299409#0 372299409#1 38215231#0 38215231#1 372299411#0 372299411#1 372299411#2 372299411#3 343547062#0 24283666 79816479#0 79816479#1 79816479#2 118721964#0 118721964#2 -37153661 55556740#0 363255022 363159274 210597392#0 210597392#1 359110260#1 23893983 24283548#0 24283548#1 24283548#2 24283548#3 24283574#0 24283574#1 364789855"/>
    </vehicle>
    <vehicle id="bus65" type="bus" depart="373.41" departLane="best">
        <route edges="-338025195#0 338025192#0 338025192#1 7976486#0 7976486#1 171984639#0 171984639#1 256854467 -56725337#3 -56725337#2 -56725337#1 -56725337#0 -58064599#1 -58064599#0 -7976448#1 -7976448#0 44356591#0 44356591#1 44356591#2 411909327#0 411909327#1 7936457 10511797#0"/>
    </vehicle>
    <vehicle id="bus66" type="bus" depart="379.16" departLane="best">
        <route edges="302299800#0 302299800#1 277741511 23893976 -359110260#1 -210597392#1 -210597392#0 -363159274 -363255022 -55556740#1 37153661 325146681#0 325146681#1 13347875#0 13347875#1 13347875#2 411914875 309482435 -108489923#1 377851568 7933944 7932712#1 7932712#2 7932712#3 372299412#0 372299412#1"/>
    </vehicle>
    <vehicle id="bus67" type="bus" depart="384.90" departLane="best">
        <route edges="-23582606#3 -23582606#2 -23582606#1 -23582606#0 44356591#0 44356591#1 44356591#2 411909327#0 411909327#1 7936314#0 7936314#1 411911880 286078256#0 7936303#0 7936303#1 7936303#2 186822211#0 186822215#0 24283694 413528724 377882536#0 377882536#1 363818322 -25199500#1 278314967"/>
    </vehicle>
    <vehicle id="bus68" type="bus" depart="390.65" departLane="best">
        <route edges="-338025195#1 -338025195#0 338025192#0 338025192#1 7976486#0 7976486#1 171984639#0 171984639#1 256854467 -56725337#3 -56725337#2 -56725337#1 -56725337#0 -58064599#1 -58064599#0 -7976448#1 -7976448#0 44356591#0 44356591#1 44356591#2 411909327#0 411909327#1 7936314#0 7936314#1 411911880 286078256#0 7936303#0 7936303#1 7936303#2 186822211#0 186822215#0 24283694 55488308 190629953#0 190629953#1 7936346#0"/>
    </vehicle>
    <vehicle id="bus69" type="bus" depart="396.39" departLane="best">
        <route edges="-24283528#3 -24283528#2 -24283528#1 -24283528#0 24283559#0 24283559#1 24283559#2 37196673#0 37196673#1 23893976 -359110260#1 7976486#0 7976486#1 171984639#0 171984639#1 256854467 -56725337#3 -56725337#2 -56725337#1 -56725337#0 -58064599#1 -58064599#0 -7976448#1 -7976448#0 44356591#0 44356591#1 44356591#2 411909327#0 411909327#1 7936314#0 7936314#1 411911880 286078256#0 7936303#0 7936303#1 7936303#2 186822211#0 186822215#0 24283694 413528724 377882536#0 -377882536#0"/>
    </vehicle>
    <vehicle id="bus70" type="bus" depart="402.14" departLane="best">
        <route edges="31620416#1 -45763754#0 -497860197#1 -497860197#0 26598953 -56725337#1 -56725337#0 -58064599#1 -58064599#0 -7976448#1 -7976448#0 44356591#0 44356591#1 44356591#2 411909327#0 411909327#1 7936314#0 7936314#1 411911880 286078256#0 7936303#0 7936303#1 7936303#2 186822211#0 37590015 -302113468 -334883453 -291193537 291193537 334883453"/>
    </vehicle>
    <vehicle id="bus71" type="bus" depart="407.88" departLane="best">
        <route edges="-55425343 -266610220 -372299410#1 -372299410#0 38215231#0 38215231#1 372299411#0 372299411#1 372299411#2 372299411#3 343547062#0 24283666 79816479#0 79816479#1 79816479#2 118721964#0 118721964#2 -37153661 55556740#0 363255022 363159274 210597392#0 210597392#1 7976593#1 338025195#0 338025195#1 -38215485#1 -38215485#0 23893687#0 -306097796"/>
    </vehicle>
    <vehicle id="bus72" type="bus" depart="413.63" departLane="best">
        <route edges="522865607 522865605 -23582606#4 -23582606#3 -23582606#2 -23582606#1 -23582606#0 44356591#0 44356591#1 44356591#2 411909327#0 411909327#1 7936314#0 7936314#1 411911880 286078256#0 7936303#0 7936303#1 7936303#2 186822211#0 186822215#0 24283694 55488308 190629953#0 190629953#1 -45985481#2 -45985481#0"/>
    </vehicle>
    <vehicle id="bus73" type="bus" depart="419.37" departLane="best">
        <route edges="23893810#0 23893810#1 23893810#2 411908606 7936314#0 7936314#1 411911880 286078256#0 7936303#0 7936303#1 7936303#2 186822211#0 186822215#0 24283694 413528724 377882536#0 377882536#1 363818322 -25199500#1 278314967"/>
    </vehicle>
    <vehicle id="bus75" type="bus" depart="430.86" departLane="best">
        <route edges="-55556740#1 -411913364#1 -302299788#1 -302299788#0 -23582606#4 -23582606#3 -23582606#2 -23582606#1 -23582606#0 44356591#0 44356591#1 44356591#2 411909327#0 411909327#1 7936457 113838783#0 113838783#1 243065797 363554496 363554495 31647681 42956774 186736235#0 186736235#3 186736235#4 186736235#5 186736235#7"/>
    </vehicle>
    <vehicle id="bus76" type="bus" depart="436.61" departLane="best">
        <route edges="190629953#0 190629953#1 7936613#0 7936613#1 363520361 113838783#0 113838783#1 243065797 302113464 23582606#0 23582606#1 23582606#2 23582606#3 23582606#4 359428795 302299788#1 411913364#0 55556740#0 363255022 363159274 210597392#0 210597392#1 7976593#1 338025195#0 338025195#1 -338025195#1"/>
    </vehicle>
    <vehicle id="bus77" type="bus" depart="442.35" departLane="best">
        <route edges="439842578 7976483 389686394#1 31692369#1 256854467 -56725337#3 -56725337#2 -56725337#1 -56725337#0 -58064599#1 -58064599#0 -7976448#1 -7976448#0 44356591#0 44356591#1 44356591#2 411909327#0 411909327#1 7936314#0 7936314#1 411911880 286078256#0 7936303#0 7936303#1 7936303#2 186822211#0 186822215#0 24283694 413528724 363472323"/>
    </vehicle>
    <vehicle id="bus78" type="bus" depart="448.10" departLane="best">
        <route edges="31623244#0 31623244#1 7936613#0 7936613#1 363520361 113838783#0 113838783#1 243065797 302113464 7976448#0 7976448#1 58064599#0 58064599#1 56725337#0 56725337#1 56725337#2 56725337#3 286078255 44356590 -525510189 -439842578 7976495#0 7976495#1 7976586"/>
    </vehicle>
    <vehicle id="bus79" type="bus" depart="453.84" departLane="best">
        <route edges="43707065#0 43707065#1 -43707293 522865605 -23582606#4 -23582606#3 -23582606#2 -23582606#1 -23582606#0 44356591#0 44356591#1 44356591#2 411909327#0 411909327#1 7936457 10511797#0 10511797#1"/>
    </vehicle>
    <vehicle id="bus80" type="bus" depart="459.59" departLane="best">
        <route edges="363472323 37146431 -23287517 377882528 377882530 37146434#0 190629953#0 190629953#1 7936613#0 7936613#1 363520361 113838783#0 113838783#1 243065797 302113464 23582606#0 23582606#1 23582606#2 23582606#3 23582606#4 359428795 302299788#1 411913364#0 37153661 325146681#0 325146681#1 13347875#0 13347875#1 13347875#2 411914875 309482435 -108489923#1 377851568 7933944"/>
    </vehicle>
    <vehicle id="bus81" type="bus" depart="465.33" departLane="best">
        <route edges="-315275163 -7976555 7976495#0 7976495#1 171984641#0 7976593#1 338025195#0 338025195#1 -38215485#1 -38215485#0 23893687#0 -306097796"/>
    </vehicle>
    <vehicle id="bus82" type="bus" depart="471.08" departLane="best">
        <route edges="-27173072 10508024#1 10508024#2 10508024#3 24283666 79816479#0 79816479#1 79816479#2 118721964#0 118721964#2 -37153661 55556740#0 363255022 363159274 210597392#0 210597392#1 7976486#0 7976486#1 171984639#0 171984639#1 302113472 44356590 26598924#0 26598924#1"/>
    </vehicle>
    <vehicle id="bus83" type="bus" depart="476.82" departLane="best">
        <route edges="-7934417 7932712#1 7932712#2 7932712#3 372299409#0 372299409#1 38215231#0 38215231#1 372299411#0 372299411#1 372299411#2 372299411#3 343547062#0 24283666 79816479#0 79816479#1 79816479#2 118721964#0 118721964#2 -37153661 55556740#0 363255022 363159274 210597392#0 210597392#1 359110260#1 23893983 -277741511 -302299800#1 302299800#1"/>
    </vehicle>
    <vehicle id="bus84" type="bus" depart="482.57" departLane="best">
        <route edges="377853589 377851568 10508024#0 10508024#1 10508024#2 10508024#3 24283666 23893810#0 23893810#1 23893810#2 411908606 7936457 10511797#0 43056322#0 43056322#1 -43056321#0"/>
    </vehicle>
    <vehicle id="bus85" type="bus" depart="488.31" departLane="best">