<?xml version="1.0" encoding="UTF-8"?>

<!-- generated on 12/19/17 00:57:33 by SUMO polyconvert Version 0.31.0
<?xml version="1.0" encoding="UTF-8"?>

<configuration xmlns:xsi="http://www.w3.org/2001/XMLSchema-instance" xsi:noNamespaceSchemaLocation="http://sumo.dlr.de/xsd/polyconvertConfiguration.xsd">

    <input>
        <net-file value="C:\Users\Traian\Sumo\2017-12-19-00-57-32\osm.net.xml"/>
        <osm-files value="osm_bbox.osm.xml"/>
        <osm.keep-full-type value="true"/>
        <type-file value="C:\Program%20Files%20(x86)\DLR\Sumo\data\typemap\osmPolyconvert.typ.xml"/>
    </input>

    <output>
        <output-file value="C:\Users\Traian\Sumo\2017-12-19-00-57-32\osm.poly.xml"/>
    </output>

    <processing>
        <poi-layer-offset value="5"/>
    </processing>

    <report>
        <verbose value="true"/>
    </report>

</configuration>
-->

<additional xmlns:xsi="http://www.w3.org/2001/XMLSchema-instance" xsi:noNamespaceSchemaLocation="http://sumo.dlr.de/xsd/additional_file.xsd">
    <location netOffset="-697737.89,-5182712.48" convBoundary="0.00,0.00,1696.17,926.85" origBoundary="23.589835,46.768648,23.612430,46.776475" projParameter="+proj=utm +zone=34 +ellps=WGS84 +datum=WGS84 +units=m +no_defs"/>

    <poly id="202370084" type="amenity.place_of_worship" color="237,199,199" fill="1" layer="-1.00" shape="497.38,374.81 494.75,380.49 496.52,381.31 497.23,384.69 497.36,385.25 495.70,388.85 492.35,390.64 490.35,389.70 489.13,392.34 489.62,392.57 487.88,396.33 484.76,394.89 483.49,397.64 482.56,398.10 481.11,397.55 480.42,396.26 479.57,398.08 475.83,399.90 471.00,397.66 469.97,393.62 470.81,391.82 469.52,392.16 468.32,391.73 467.77,390.34 469.05,387.61 465.93,386.17 467.31,383.17 467.68,382.41 468.17,382.64 469.40,380.00 467.40,379.08 466.60,375.37 468.25,371.79 471.82,369.87 474.03,371.64 476.23,365.01 479.68,366.59 484.63,355.89 482.46,354.89 484.83,349.74 503.46,358.36 501.07,363.51 498.89,362.50 493.92,373.20 497.38,374.81"/>
    <poly id="202370084#1" type="building.yes" color="255,230,230" fill="1" layer="-1.00" shape="497.38,374.81 494.75,380.49 496.52,381.31 497.23,384.69 497.36,385.25 495.70,388.85 492.35,390.64 490.35,389.70 489.13,392.34 489.62,392.57 487.88,396.33 484.76,394.89 483.49,397.64 482.56,398.10 481.11,397.55 480.42,396.26 479.57,398.08 475.83,399.90 471.00,397.66 469.97,393.62 470.81,391.82 469.52,392.16 468.32,391.73 467.77,390.34 469.05,387.61 465.93,386.17 467.31,383.17 467.68,382.41 468.17,382.64 469.40,380.00 467.40,379.08 466.60,375.37 468.25,371.79 471.82,369.87 474.03,371.64 476.23,365.01 479.68,366.59 484.63,355.89 482.46,354.89 484.83,349.74 503.46,358.36 501.07,363.51 498.89,362.50 493.92,373.20 497.38,374.81"/>
    <poly id="202370085" type="amenity.theatre" color="237,199,199" fill="1" layer="-1.00" shape="603.00,169.90 597.22,182.52 597.46,182.63 595.58,186.74 595.33,186.63 590.99,196.15 589.62,199.10 576.49,227.78 572.45,225.93 570.17,230.89 545.72,219.53 559.93,188.35 573.64,158.43 573.27,158.26 575.41,153.61 575.75,153.78 582.44,139.19 611.05,152.29 604.22,167.21 604.47,167.32 603.24,170.02 603.00,169.90"/>
    <poly id="202370085#1" type="building.yes" color="255,230,230" fill="1" layer="-1.00" shape="603.00,169.90 597.22,182.52 597.46,182.63 595.58,186.74 595.33,186.63 590.99,196.15 589.62,199.10 576.49,227.78 572.45,225.93 570.17,230.89 545.72,219.53 559.93,188.35 573.64,158.43 573.27,158.26 575.41,153.61 575.75,153.78 582.44,139.19 611.05,152.29 604.22,167.21 604.47,167.32 603.24,170.02 603.00,169.90"/>
    <poly id="202370087" type="building.yes" color="255,230,230" fill="1" layer="-1.00" shape="710.11,223.62 708.09,229.19 707.04,231.82 702.06,230.04 700.56,234.55 678.15,227.11 678.52,225.99 672.32,223.95 673.85,219.36 670.10,217.97 673.03,209.49 710.11,223.62"/>
    <poly id="202370099" type="building.yes" color="255,230,230" fill="1" layer="-1.00" shape="653.20,219.00 653.77,217.34 652.43,216.88 651.86,218.53 653.20,219.00"/>
    <poly id="202370122" type="amenity.courthouse" color="237,199,199" fill="1" layer="-1.00" shape="681.72,271.22 693.46,275.34 694.42,272.65 704.99,276.39 704.57,277.52 701.48,285.91 697.84,295.19 688.46,291.99 688.13,292.97 680.71,290.37 681.04,289.44 672.91,286.66 672.37,288.21 662.84,284.96 663.38,283.40 655.18,280.59 655.02,281.06 647.75,278.79 648.11,277.77 632.65,272.48 631.89,273.03 629.57,272.10 629.21,271.31 612.21,265.49 611.98,266.09 597.04,260.97 597.16,260.67 596.87,260.57 602.39,249.00 610.15,252.69 616.01,240.82 612.79,239.29 616.22,232.58 620.26,224.41 621.60,222.01 622.65,219.72 624.08,216.46 625.50,213.31 626.29,211.91 629.46,213.52 635.47,201.32 630.32,198.16 636.87,186.95 648.09,191.59 644.99,200.57 647.51,201.44 647.78,200.67 658.18,204.26 657.96,204.94 660.92,205.96 663.98,197.06 675.76,201.13 673.03,209.49 670.10,217.97 667.47,225.31 667.78,225.42 656.77,257.45 656.34,257.31 654.83,261.72 666.71,265.92 667.24,263.96 682.38,269.30 681.72,271.22"/>
    <poly id="202370122#1" type="building.yes" color="255,230,230" fill="1" layer="-1.00" shape="681.72,271.22 693.46,275.34 694.42,272.65 704.99,276.39 704.57,277.52 701.48,285.91 697.84,295.19 688.46,291.99 688.13,292.97 680.71,290.37 681.04,289.44 672.91,286.66 672.37,288.21 662.84,284.96 663.38,283.40 655.18,280.59 655.02,281.06 647.75,278.79 648.11,277.77 632.65,272.48 631.89,273.03 629.57,272.10 629.21,271.31 612.21,265.49 611.98,266.09 597.04,260.97 597.16,260.67 596.87,260.57 602.39,249.00 610.15,252.69 616.01,240.82 612.79,239.29 616.22,232.58 620.26,224.41 621.60,222.01 622.65,219.72 624.08,216.46 625.50,213.31 626.29,211.91 629.46,213.52 635.47,201.32 630.32,198.16 636.87,186.95 648.09,191.59 644.99,200.57 647.51,201.44 647.78,200.67 658.18,204.26 657.96,204.94 660.92,205.96 663.98,197.06 675.76,201.13 673.03,209.49 670.10,217.97 667.47,225.31 667.78,225.42 656.77,257.45 656.34,257.31 654.83,261.72 666.71,265.92 667.24,263.96 682.38,269.30 681.72,271.22"/>
    <poly id="207449547" type="building.yes" color="255,230,230" fill="1" layer="-1.00" shape="386.22,528.48 375.28,519.29 367.02,512.12 411.08,463.71 428.17,473.88 446.28,484.29 444.54,488.04 438.43,501.27 424.37,531.69 420.53,539.99 418.46,544.47 386.22,528.48"/>
    <poly id="207476635" type="building.yes" color="255,230,230" fill="1" layer="-1.00" shape="311.04,465.09 327.40,472.18 340.84,457.35 345.64,448.31 353.48,434.67 379.56,445.75 369.93,469.09 363.61,474.36 303.35,480.37 311.04,465.09"/>
    <poly id="207477609" type="building.yes" color="255,230,230" fill="1" layer="-1.00" shape="344.23,446.78 338.60,444.24 311.51,432.01 318.35,417.53 351.65,433.13 344.23,446.78"/>
    <poly id="237357950" type="amenity.public_building" color="237,199,199" fill="1" layer="-1.00" shape="580.43,340.58 609.59,363.61 607.13,366.90 602.84,372.64 598.87,377.96 571.07,355.30 568.50,352.84 559.32,339.87 583.69,291.64 633.76,307.28 627.99,321.14 625.96,327.37 619.05,325.50 620.84,321.07 593.28,311.57 580.43,340.58"/>
    <poly id="237357950#1" type="building.yes" color="255,230,230" fill="1" layer="-1.00" shape="580.43,340.58 609.59,363.61 607.13,366.90 602.84,372.64 598.87,377.96 571.07,355.30 568.50,352.84 559.32,339.87 583.69,291.64 633.76,307.28 627.99,321.14 625.96,327.37 619.05,325.50 620.84,321.07 593.28,311.57 580.43,340.58"/>
    <poly id="244016056" type="building.hotel" color="255,230,230" fill="1" layer="-1.00" shape="344.21,401.37 378.08,416.14 401.30,361.08 374.98,351.78 362.15,378.39 357.00,376.24 344.21,401.37"/>
    <poly id="244016056#1" type="tourism.hotel" color="207,245,201" fill="1" layer="-2.00" shape="344.21,401.37 378.08,416.14 401.30,361.08 374.98,351.78 362.15,378.39 357.00,376.24 344.21,401.37"/>
    <poly id="254762613" type="building.yes" color="255,230,230" fill="1" layer="-1.00" shape="424.43,323.99 431.20,305.78 442.10,311.79 440.86,315.81 445.35,318.16 446.39,316.36 449.30,317.92 448.50,319.62 452.52,320.99 455.12,317.14 461.33,319.56 455.97,332.53 424.43,323.99"/>
    <poly id="254762614" type="building.house" color="255,230,230" fill="1" layer="-1.00" shape="431.20,305.78 435.07,297.05 465.25,312.80 461.33,319.56 455.12,317.14 456.69,314.49 443.43,308.89 442.10,311.79 431.20,305.78"/>
    <poly id="254762615" type="building.yes" color="255,230,230" fill="1" layer="-1.00" shape="435.07,297.05 437.57,289.90 440.24,282.23 453.81,289.56 450.22,297.31 454.25,298.66 457.57,291.52 471.39,298.74 465.25,312.80 435.07,297.05"/>
    <poly id="275054514" type="building.yes" color="255,230,230" fill="1" layer="-1.00" shape="330.00,296.26 346.71,302.08 341.26,312.88 333.29,327.65 305.57,315.00 307.72,307.39 321.73,313.11 324.78,306.74 330.00,296.26"/>
    <poly id="275054515" type="building.yes" color="255,230,230" fill="1" layer="-1.00" shape="326.00,319.05 329.32,320.91 335.59,311.14 329.84,309.06 326.00,319.05"/>
    <poly id="275054516" type="building.yes" color="255,230,230" fill="1" layer="-1.00" shape="346.71,302.08 367.99,309.11 359.50,328.52 354.43,326.46 360.51,314.26 357.29,313.34 352.60,324.37 347.53,322.33 349.54,314.97 341.26,312.88 346.71,302.08"/>
    <poly id="275054518" type="building.yes" color="255,230,230" fill="1" layer="-1.00" shape="367.99,309.11 382.39,315.11 379.07,321.61 371.55,319.88 369.12,328.02 365.91,326.84 359.21,341.31 356.54,340.28 350.47,352.08 343.61,347.00 350.74,335.77 354.88,337.26 359.50,328.52 367.99,309.11"/>
    <poly id="275054519" type="building.yes" color="255,230,230" fill="1" layer="-1.00" shape="382.39,315.11 402.57,322.65 399.06,330.49 396.93,329.62 385.91,351.77 381.16,348.24 378.76,351.26 377.18,349.99 373.88,351.64 370.04,353.40 363.39,349.81 367.64,344.15 372.04,346.18 386.32,322.93 384.74,321.93 375.13,338.47 371.84,335.80 379.07,321.61 382.39,315.11"/>
    <poly id="275054521" type="building.yes" color="255,230,230" fill="1" layer="-1.00" shape="402.57,322.65 415.67,327.27 409.64,345.81 402.30,343.15 401.03,344.72 393.31,340.69 399.06,330.49 402.57,322.65"/>
    <poly id="275059042" type="building.yes" color="255,230,230" fill="1" layer="-1.00" shape="334.27,378.89 338.73,370.11 341.60,371.56 337.14,380.34 334.27,378.89"/>
    <poly id="275059052" type="building.yes" color="255,230,230" fill="1" layer="-1.00" shape="303.52,382.30 309.17,369.79 319.89,346.05 325.77,349.27 321.34,357.96 323.81,359.22 315.38,376.96 321.71,379.17 332.89,349.75 340.73,354.30 339.46,356.88 351.34,361.81 339.36,383.27 333.83,395.36 303.52,382.30"/>
    <poly id="275059072" type="building.yes" color="255,230,230" fill="1" layer="-1.00" shape="333.83,395.36 339.36,383.27 342.18,384.60 348.33,372.33 352.19,373.48 355.88,367.26 358.10,368.36 359.86,364.75 363.65,367.93 357.00,376.24 344.21,401.37 333.83,395.36"/>
    <poly id="275062912" type="building.yes" color="255,230,230" fill="1" layer="-1.00" shape="378.68,303.86 384.65,290.57 379.03,288.51 382.31,280.88 387.57,282.89 389.83,278.98 379.55,272.78 376.68,277.64 373.04,275.88 368.36,282.64 344.71,273.39 337.79,288.00 378.68,303.86"/>
    <poly id="275062913" type="building.yes" color="255,230,230" fill="1" layer="-1.00" shape="371.10,204.49 366.63,213.44 350.43,245.93 347.21,252.39 346.72,253.34 354.59,257.29 357.66,253.06 355.06,250.93 373.58,216.22 375.50,217.82 381.08,208.05 371.10,204.49"/>
    <poly id="275062914" type="building.yes" color="255,230,230" fill="1" layer="-1.00" shape="360.57,200.46 371.10,204.49 366.63,213.44 362.12,210.90 347.12,243.10 350.43,245.93 347.21,252.39 338.28,248.37 347.80,227.91 357.82,206.38 360.57,200.46"/>
    <poly id="275062915" type="building.yes" color="255,230,230" fill="1" layer="-1.00" shape="330.31,285.09 321.04,280.96 327.94,264.95 336.32,251.78 341.23,253.74 328.13,277.83 332.17,279.81 330.31,285.09"/>
    <poly id="275062916" type="building.yes" color="255,230,230" fill="1" layer="-1.00" shape="420.47,317.09 427.51,296.27 412.55,289.86 401.99,311.78 420.47,317.09"/>
    <poly id="275062919" type="building.yes" color="255,230,230" fill="1" layer="-1.00" shape="401.99,311.78 412.55,289.86 406.47,287.14 400.33,295.13 392.05,291.58 394.05,286.74 396.67,286.67 396.79,283.00 389.83,278.98 387.57,282.89 384.65,290.57 378.68,303.86 401.99,311.78"/>
    <poly id="275062923" type="building.yes" color="255,230,230" fill="1" layer="-1.00" shape="449.79,261.04 460.32,233.80 492.08,248.30 479.73,274.66 449.79,261.04"/>
    <poly id="275062925" type="building.yes" color="255,230,230" fill="1" layer="-1.00" shape="404.78,276.93 429.90,287.73 427.51,296.27 412.55,289.86 406.47,287.14 399.81,284.73 404.78,276.93"/>
    <poly id="275062926" type="building.yes" color="255,230,230" fill="1" layer="-1.00" shape="369.49,242.41 379.76,222.93 391.67,228.63 379.73,248.88 369.49,242.41"/>
    <poly id="275062927" type="building.yes" color="255,230,230" fill="1" layer="-1.00" shape="340.85,214.12 347.55,217.58 352.21,205.30 357.82,206.38 360.57,200.46 339.90,193.25 326.58,225.46 331.06,226.43 341.01,203.09 346.51,204.09 340.85,214.12"/>
    <poly id="275062930" type="building.yes" color="255,230,230" fill="1" layer="-1.00" shape="452.80,275.45 468.79,283.08 474.37,274.11 479.89,276.10 471.77,298.51 457.89,290.70 460.80,287.57 452.97,284.41 451.63,287.63 446.74,285.26 450.67,278.89 452.80,275.45"/>
    <poly id="275062931" type="building.yes" color="255,230,230" fill="1" layer="-1.00" shape="337.79,288.00 344.71,273.39 348.87,264.62 341.46,262.59 332.17,279.81 330.31,285.09 337.79,288.00"/>
    <poly id="275062932" type="building.yes" color="255,230,230" fill="1" layer="-1.00" shape="315.52,242.30 317.98,237.65 330.91,241.79 339.89,224.31 347.80,227.91 338.28,248.37 335.36,251.50 315.52,242.30"/>
    <poly id="275062933" type="building.yes" color="255,230,230" fill="1" layer="-1.00" shape="430.54,284.23 442.02,251.36 435.02,248.93 423.54,281.80 430.54,284.23"/>
    <poly id="275062935" type="building.yes" color="255,230,230" fill="1" layer="-1.00" shape="407.42,215.70 417.86,219.88 411.55,239.54 407.96,236.57 409.74,232.13 404.66,230.94 396.86,249.89 392.84,247.51 378.26,272.98 371.79,271.91 379.80,257.51 358.61,247.41 375.50,217.82 381.08,208.05 407.42,215.70"/>
    <poly id="275062937" type="building.yes" color="255,230,230" fill="1" layer="-1.00" shape="435.79,246.75 443.37,249.32 450.61,230.21 417.86,219.88 411.55,239.54 416.23,240.52 418.18,235.01 424.96,237.13 419.31,248.14 425.71,251.46 433.37,237.00 438.89,238.86 435.79,246.75"/>
    <poly id="275074335" type="building.yes" color="255,230,230" fill="1" layer="-1.00" shape="411.39,388.67 412.93,385.67 410.29,384.76 412.49,380.33 417.31,383.35 414.19,390.81 411.39,388.67"/>
    <poly id="275074336" type="building.yes" color="255,230,230" fill="1" layer="-1.00" shape="400.71,409.98 405.55,398.07 417.50,402.90 412.66,414.80 400.71,409.98"/>
    <poly id="275074341" type="building.yes" color="255,230,230" fill="1" layer="-1.00" shape="389.27,417.82 408.50,369.00 432.95,379.83 414.12,428.64 389.27,417.82"/>
    <poly id="275074344" type="building.yes" color="255,230,230" fill="1" layer="-1.00" shape="408.50,369.00 412.06,360.74 418.14,363.38 416.99,368.22 426.73,371.20 428.21,367.36 437.79,371.57 432.95,379.83 408.50,369.00"/>
    <poly id="275074346" type="amenity.courthouse" color="237,199,199" fill="1" layer="-1.00" shape="636.08,233.94 650.64,239.25 656.69,222.80 642.12,217.48 636.08,233.94"/>
    <poly id="275074346#1" type="building.yes" color="255,230,230" fill="1" layer="-1.00" shape="636.08,233.94 650.64,239.25 656.69,222.80 642.12,217.48 636.08,233.94"/>
    <poly id="275074361" type="building.yes" color="255,230,230" fill="1" layer="-1.00" shape="426.81,330.17 452.37,339.56 445.68,354.50 434.32,349.70 427.67,346.89 421.01,344.07 424.81,334.97 426.81,330.17"/>
    <poly id="275074364" type="amenity.courthouse" color="237,199,199" fill="1" layer="-1.00" shape="625.58,265.08 638.49,269.76 643.95,254.77 631.04,250.10 625.58,265.08"/>
    <poly id="275074364#1" type="building.yes" color="255,230,230" fill="1" layer="-1.00" shape="625.58,265.08 638.49,269.76 643.95,254.77 631.04,250.10 625.58,265.08"/>
    <poly id="275074367" type="building.yes" color="255,230,230" fill="1" layer="-1.00" shape="412.13,360.66 418.03,363.20 428.31,367.31 437.99,371.37 438.30,370.59 441.21,362.97 416.34,352.56 412.13,360.66"/>
    <poly id="275074368" type="building.yes" color="255,230,230" fill="1" layer="-1.00" shape="468.50,210.32 504.44,226.27 523.64,180.48 489.10,164.82 468.50,210.32"/>
    <poly id="275074371" type="building.yes" color="255,230,230" fill="1" layer="-1.00" shape="441.31,362.73 416.43,352.51 421.01,344.07 427.67,346.89 426.36,351.16 432.38,353.65 434.32,349.70 445.68,354.50 441.31,362.73"/>
    <poly id="275080539" type="building.yes" color="255,230,230" fill="1" layer="-1.00" shape="527.75,457.74 533.71,445.06 566.86,460.43 560.84,473.75 527.75,457.74"/>
    <poly id="275080545" type="building.yes" color="255,230,230" fill="1" layer="-1.00" shape="471.55,526.79 482.29,505.89 444.54,488.04 438.43,501.27 447.21,505.77 442.83,515.21 448.05,518.65 438.45,537.72 424.37,531.69 420.53,539.99 434.07,546.16 423.40,567.10 430.14,571.06 459.46,514.53 466.93,517.85 463.94,523.04 471.55,526.79"/>
    <poly id="275080549" type="building.yes" color="255,230,230" fill="1" layer="-1.00" shape="490.72,476.52 547.14,510.20 575.64,464.14 570.81,461.60 551.81,494.63 510.11,470.78 524.37,445.99 512.26,439.06 490.72,476.52"/>
    <poly id="275080551" type="building.yes" color="255,230,230" fill="1" layer="-1.00" shape="512.26,439.06 524.37,445.99 527.55,446.87 546.38,408.92 590.96,432.22 611.33,391.24 596.67,383.56 582.05,410.25 587.88,413.72 585.05,418.73 547.98,399.12 551.05,391.70 560.19,395.84 564.52,387.04 555.85,384.26 564.76,367.63 571.80,371.75 576.15,363.92 565.46,358.66 568.50,352.84 559.32,339.87 553.43,352.10 551.12,352.27 548.26,358.09 550.13,358.93 541.04,378.09 539.25,377.78 535.72,384.04 537.38,385.07 512.26,439.06"/>
    <poly id="276472319" type="building.yes" color="255,230,230" fill="1" layer="-1.00" shape="656.37,464.49 667.74,472.01 679.01,455.06 682.96,457.67 679.89,462.30 690.94,469.61 698.84,457.72 666.08,436.08 664.37,438.66 653.09,431.20 645.90,442.01 656.93,449.30 660.86,443.40 667.49,447.78 656.37,464.49"/>
    <poly id="276472378" type="building.yes" color="255,230,230" fill="1" layer="-1.00" shape="608.16,494.94 618.18,477.36 603.20,468.86 597.90,477.63 592.66,486.13 608.16,494.94"/>
    <poly id="276472420" type="building.yes" color="255,230,230" fill="1" layer="-1.00" shape="681.83,325.20 697.55,330.38 692.78,340.62 677.32,335.36 681.83,325.20"/>
    <poly id="276472466" type="building.yes" color="255,230,230" fill="1" layer="-1.00" shape="627.99,321.14 659.45,331.87 667.00,319.41 633.76,307.28 627.99,321.14"/>
    <poly id="276472491" type="building.yes" color="255,230,230" fill="1" layer="-1.00" shape="629.02,444.53 640.43,428.52 647.64,433.06 637.29,449.81 629.02,444.53"/>
    <poly id="276472498" type="building.yes" color="255,230,230" fill="1" layer="-1.00" shape="617.05,401.74 622.26,391.80 632.43,397.10 627.21,407.04 617.05,401.74"/>
    <poly id="276472602" type="building.yes" color="255,230,230" fill="1" layer="-1.00" shape="654.47,389.94 656.78,383.37 675.78,390.00 673.47,396.58 654.47,389.94"/>
    <poly id="276472807" type="building.yes" color="255,230,230" fill="1" layer="-1.00" shape="670.41,353.95 678.23,356.17 681.65,344.48 679.56,343.65 680.30,339.60 677.43,339.20 670.41,353.95"/>
    <poly id="276472818" type="building.yes" color="255,230,230" fill="1" layer="-1.00" shape="642.53,412.34 647.77,400.41 662.06,404.67 659.98,412.46 657.58,411.63 654.96,417.15 642.53,412.34"/>
    <poly id="276472847" type="building.yes" color="255,230,230" fill="1" layer="-1.00" shape="667.00,319.41 681.83,325.20 677.32,335.36 675.28,339.96 657.20,335.57 659.45,331.87 667.00,319.41"/>
    <poly id="276472899" type="building.yes" color="255,230,230" fill="1" layer="-1.00" shape="629.02,444.53 623.23,440.42 626.86,435.33 624.23,433.46 632.00,422.55 640.43,428.52 629.02,444.53"/>
    <poly id="276472906" type="building.yes" color="255,230,230" fill="1" layer="-1.00" shape="661.48,417.36 665.06,405.52 668.66,406.85 671.49,399.38 685.17,403.31 677.37,423.78 661.48,417.36"/>
    <poly id="276473139" type="building.yes" color="255,230,230" fill="1" layer="-1.00" shape="631.71,408.96 642.53,412.34 647.77,400.41 645.06,400.02 646.60,394.78 639.39,392.26 635.78,405.16 632.60,404.91 631.71,408.96"/>
    <poly id="276473155" type="building.yes" color="255,230,230" fill="1" layer="-1.00" shape="607.13,366.90 621.57,375.71 641.01,343.37 649.33,348.64 645.48,359.70 641.16,356.99 623.66,385.77 602.84,372.64 607.13,366.90"/>
    <poly id="276473227" type="building.yes" color="255,230,230" fill="1" layer="-1.00" shape="652.54,512.93 655.52,508.47 650.18,504.92 656.59,495.34 673.61,506.64 666.67,517.02 661.85,513.82 659.39,517.48 652.54,512.93"/>
    <poly id="276473257" type="building.yes" color="255,230,230" fill="1" layer="-1.00" shape="603.89,430.54 601.49,429.56 600.03,432.24 596.75,430.62 601.75,421.71 621.81,435.07 595.36,476.08 588.79,472.06 612.56,436.46 603.89,430.54"/>
    <poly id="276473265" type="building.yes" color="255,230,230" fill="1" layer="-1.00" shape="676.82,385.18 690.61,390.48 704.59,353.92 694.53,349.82 690.94,348.42 687.88,353.46 690.88,354.63 683.97,370.89 680.06,369.70 676.82,385.18"/>
    <poly id="276984215" type="building.industrial" color="255,230,230" fill="1" layer="-1.00" shape="344.23,446.78 341.18,452.23 335.06,449.39 338.60,444.24 344.23,446.78"/>
    <poly id="315266407" type="building.yes" color="255,230,230" fill="1" layer="-1.00" shape="379.85,517.65 408.95,486.93 425.28,495.44 407.02,532.85 386.85,522.98 379.85,517.65"/>
    <poly id="323768799" type="amenity.fountain" color="237,199,199" fill="1" layer="-1.00" shape="370.66,459.02 373.03,455.92 374.01,456.63 375.40,454.61 376.06,455.04 377.02,453.67 378.10,454.51 376.97,455.88 377.57,456.25 376.12,458.10 376.84,458.64 374.51,461.85 370.66,459.02"/>
    <poly id="356906473" type="building.yes" color="255,230,230" fill="1" layer="-1.00" shape="547.14,510.20 575.64,464.14 583.38,469.21 563.58,502.95 567.41,505.63 588.79,472.06 595.36,476.08 597.90,477.63 592.66,486.13 575.72,513.69 569.43,523.92 547.14,510.20"/>
    <poly id="363522621" type="leisure.park" color="207,245,201" fill="1" layer="-2.00" shape="610.69,155.48 626.00,163.39 602.36,209.10 584.48,243.68 580.77,250.83 574.26,234.36 610.69,155.48"/>
    <poly id="363522622" type="leisure.park" color="207,245,201" fill="1" layer="-2.00" shape="523.37,225.41 526.87,217.24 541.72,182.54 562.22,134.65 578.39,143.44 542.88,219.48 523.37,225.41"/>
    <poly id="40734543" type="amenity.fountain" color="237,199,199" fill="1" layer="-1.00" shape="511.46,319.00 514.33,321.01 517.79,322.00 521.37,321.81 524.70,320.45 527.39,318.07 529.16,314.94 529.79,311.42 529.22,307.88 527.51,304.72 524.87,302.30 521.65,300.90 518.15,300.60 514.75,301.44 511.79,303.32 509.59,306.06 508.40,309.34 508.32,312.84 509.38,316.18 511.46,319.00"/>
    <poly id="43051803" type="leisure.garden" color="207,245,201" fill="1" layer="-2.00" shape="482.33,293.71 503.38,240.21 515.61,245.95 516.01,251.28 517.98,259.72 521.59,268.22 524.51,273.02 527.87,277.87 523.69,287.40 521.00,287.23 517.57,287.34 513.96,287.90 509.20,289.68 506.47,291.07 504.03,293.00 502.25,294.58 500.02,296.81 499.08,298.19 482.33,293.71"/>
    <poly id="43051804" type="leisure.garden" color="207,245,201" fill="1" layer="-2.00" shape="525.50,247.20 539.10,253.16 532.98,272.43 531.70,270.96 530.52,269.28 529.54,267.83 528.01,264.91 526.76,262.01 525.57,257.78 524.20,252.83 523.41,248.92 525.50,247.20"/>
    <poly id="43051805" type="leisure.garden" color="207,245,201" fill="1" layer="-2.00" shape="541.61,275.07 550.44,258.12 561.22,262.82 562.36,264.21 559.75,267.43 556.17,270.17 552.20,272.70 549.86,273.60 547.17,274.23 544.68,275.17 541.61,275.07"/>
    <poly id="43051806" type="leisure.garden" color="207,245,201" fill="1" layer="-2.00" shape="556.55,323.89 557.69,321.43 579.00,276.32 574.72,272.77 568.65,269.32 563.84,273.91 557.12,278.79 551.10,281.05 547.40,281.54 544.49,282.46 539.42,282.35 534.49,291.89 537.48,294.18 538.65,295.52 539.80,297.33 540.49,299.03 541.16,301.10 541.68,302.60 542.09,304.10 542.31,305.88 542.61,308.30 542.90,310.64 542.83,312.87 542.54,314.57 541.96,316.56 541.43,318.09 556.55,323.89"/>
    <poly id="43051808" type="leisure.garden" color="207,245,201" fill="1" layer="-2.00" shape="474.53,313.68 480.78,298.04 496.56,301.64 497.07,302.18 497.57,302.82 497.60,303.62 497.34,305.72 496.89,309.03 496.72,311.40 496.62,314.16 496.85,316.27 497.48,317.99 474.53,313.68"/>
    <poly id="43051809" type="leisure.garden" color="207,245,201" fill="1" layer="-2.00" shape="548.65,340.17 554.64,328.22 540.28,322.62 539.57,323.79 538.27,325.40 536.59,327.35 535.02,328.59 533.41,329.58 531.89,330.62 530.62,331.53 528.93,332.23 548.65,340.17"/>
    <poly id="43051811" type="leisure.garden" color="207,245,201" fill="1" layer="-2.00" shape="466.38,334.43 492.21,343.17 496.51,332.42 495.84,331.08 494.84,330.52 490.82,329.37 468.96,328.25 466.38,334.43"/>
    <poly id="43051812" type="leisure.garden" color="207,245,201" fill="1" layer="-2.00" shape="538.48,361.79 514.30,351.86 518.09,342.11 518.87,341.85 520.00,341.99 520.88,342.38 524.97,346.74 526.89,348.30 540.36,357.42 538.48,361.79"/>
    <poly id="55424165" type="historic.memorial" color="128,255,128" fill="1" layer="-1.00" shape="454.86,445.57 450.54,438.98 453.35,432.67 461.66,432.01 465.45,438.27 463.13,443.90 454.86,445.57"/>
    <poly id="55424169" type="leisure.garden" color="207,245,201" fill="1" layer="-2.00" shape="411.36,447.09 439.24,459.98 445.35,448.21 439.87,440.26 446.45,427.00 458.04,423.70 453.52,419.75 433.35,402.17 411.36,447.09"/>
    <poly id="55424170" type="leisure.garden" color="207,245,201" fill="1" layer="-2.00" shape="451.39,465.94 456.24,453.47 468.91,451.55 474.67,441.82 472.99,430.32 503.62,434.32 481.47,478.75 451.39,465.94"/>
    <poly id="60961391" type="leisure.garden" color="207,245,201" fill="1" layer="-2.00" shape="437.74,399.13 462.58,420.84 472.26,425.66 502.45,429.37 531.11,368.65 467.14,341.77 437.74,399.13"/>
    <poly id="60968137" type="leisure.garden" color="207,245,201" fill="1" layer="-2.00" shape="528.34,242.31 541.70,247.46 547.88,235.78 543.61,234.62 538.48,235.06 531.61,238.11 528.34,242.31"/>
    <poly id="60968138" type="leisure.garden" color="207,245,201" fill="1" layer="-2.00" shape="558.43,238.99 562.58,243.82 564.76,252.27 563.50,257.37 552.73,252.35 558.43,238.99"/>
    <poi id="1378705581" type="amenity.cinema" color="237,199,199" layer="4.00" x="470.26" y="244.42"/>
    <poi id="1453803226" type="amenity.public_building" color="237,199,199" layer="4.00" x="518.13" y="483.41"/>
    <poi id="1583747943" type="amenity.bank" color="237,199,199" layer="4.00" x="369.83" y="449.49"/>
    <poi id="1588118539" type="amenity.bank" color="237,199,199" layer="4.00" x="509.32" y="449.04"/>
    <poi id="1589491711" type="amenity.bank" color="237,199,199" layer="4.00" x="685.49" y="327.94"/>
    <poi id="1710548110" type="amenity.university" color="237,199,199" layer="4.00" x="415.13" y="478.74"/>
    <poi id="1729018479" type="amenity.telephone" color="237,199,199" layer="4.00" x="375.71" y="448.69"/>
    <poi id="1731008531" type="tourism.hotel" color="207,245,201" layer="3.00" x="465.01" y="305.88"/>
    <poi id="2173393814" type="building.yes" color="255,230,230" layer="4.00" x="1008.37" y="439.62"/>
    <poi id="2173404281" type="building.yes" color="255,230,230" layer="4.00" x="1177.50" y="519.86"/>
    <poi id="2175146091" type="building.yes" color="255,230,230" layer="4.00" x="646.59" y="316.17"/>
    <poi id="2177295925" type="amenity.atm" color="237,199,199" layer="4.00" x="363.61" y="474.36"/>
    <poi id="2305391559" type="amenity.restaurant" color="237,199,199" layer="4.00" x="682.58" y="448.96"/>
    <poi id="2329186699" type="shop.mobile_phone" color="237,199,255" layer="4.00" x="338.49" y="430.65"/>
    <poi id="2329193377" type="shop.toys" color="237,199,255" layer="4.00" x="412.50" y="326.56"/>
    <poi id="2329361596" type="shop.bakery" color="237,199,255" layer="4.00" x="496.46" y="219.68"/>
    <poi id="2334399824" type="amenity.cafe" color="237,199,199" layer="4.00" x="438.96" y="484.68"/>
    <poi id="2397663240" type="amenity.drinking_water" color="237,199,199" layer="4.00" x="556.74" y="274.83"/>
    <poi id="2452681855" type="shop.books" color="237,199,255" layer="4.00" x="556.30" y="345.56"/>
    <poi id="2452681856" type="building.public" color="255,230,230" layer="4.00" x="569.52" y="313.54"/>
    <poi id="2605834248" type="amenity.pharmacy" color="237,199,199" layer="4.00" x="455.95" y="325.52"/>
    <poi id="2631631752" type="shop.clothes" color="237,199,255" layer="4.00" x="423.04" y="222.47"/>
    <poi id="2631639213" type="shop.shoes" color="237,199,255" layer="4.00" x="390.13" y="213.66"/>
    <poi id="2634050915" type="shop.florist" color="237,199,255" layer="4.00" x="345.52" y="306.36"/>
    <poi id="2634051079" type="amenity.pub" color="237,199,199" layer="4.00" x="374.01" y="288.09"/>
    <poi id="2634053929" type="shop.erotic" color="237,199,255" layer="4.00" x="404.10" y="307.90"/>
    <poi id="2634060255" type="shop.travel_agency" color="237,199,255" layer="4.00" x="413.70" y="304.80"/>
    <poi id="2634652260" type="tourism.museum" color="207,245,201" layer="3.00" x="552.84" y="395.55"/>
    <poi id="2642135509" type="amenity.townhall" color="237,199,199" layer="4.00" x="405.28" y="419.84"/>
    <poi id="2662994737" type="shop.books" color="237,199,255" layer="4.00" x="456.33" y="491.35"/>
    <poi id="2797291196" type="shop.perfumery" color="237,199,255" layer="4.00" x="427.51" y="296.27"/>