<?xml version="1.0"?>
<!-- generated on 2017-12-19 00:57:33.781798 by $Id: route2trips.py 25256 2017-07-19 06:38:15Z behrisch $ via randomTrips.py
  options: 
-->
<routes xmlns:xsi="http://www.w3.org/2001/XMLSchema-instance" xsi:noNamespaceSchemaLocation="http://sumo.dlr.de/xsd/routes_file.xsd">
    <vType id="passenger" speedFactor="normc(1.00,0.10,0.20,2.00)" vClass="passenger">
    </vType>
    <trip id="veh0" depart="0.00" departLane="best" from="23893810#0" to="-43056321#0" type="passenger"/>
    <trip id="veh2" depart="2.18" departLane="best" from="363520361" to="363554495" type="passenger"/>
    <trip id="veh3" depart="3.27" departLane="best" from="113838783#1" to="363554495" type="passenger"/>
    <trip id="veh6" depart="6.54" departLane="best" from="-7976448#0" to="10511797#0" type="passenger"/>
    <trip id="veh7" depart="7.63" departLane="best" from="338683089#0" to="7976448#1" type="passenger"/>
    <trip id="veh8" depart="8.71" departLane="best" from="23893810#0" to="363554495" type="passenger"/>
    <trip id="veh9" depart="9.80" departLane="best" from="363520361" to="23582606#4" type="passenger"/>
    <trip id="veh10" depart="10.89" departLane="best" from="23893810#0" to="177922838#0" type="passenger"/>
    <trip id="veh11" depart="11.98" departLane="best" from="177922838#2" to="7976448#1" type="passenger"/>
    <trip id="veh12" depart="13.07" departLane="best" from="363520361" to="363554496" type="passenger"/>
    <trip id="veh13" depart="14.16" departLane="best" from="-7976448#1" to="43056321#1" type="passenger"/>
    <trip id="veh14" depart="15.25" departLane="best" from="338683089#1" to="43056321#1" type="passenger"/>
    <trip id="veh15" depart="16.34" departLane="best" from="113838783#1" to="7976448#1" type="passenger"/>
    <trip id="veh16" depart="17.43" departLane="best" from="546641257" to="23582606#3" type="passenger"/>
    <trip id="veh18" depart="19.61" departLane="best" from="23893810#0" to="177922838#0" type="passenger"/>
    <trip id="veh22" depart="23.97" departLane="best" from="411908606" to="363554495" type="passenger"/>
    <trip id="veh24" depart="26.14" departLane="best" from="338683089#0" to="113838783#0" type="passenger"/>
    <trip id="veh25" depart="27.23" departLane="best" from="546641257" to="7936314#1" type="passenger"/>
    <trip id="veh26" depart="28.32" departLane="best" from="363520361" to="10511797#1" type="passenger"/>
    <trip id="veh29" depart="31.59" departLane="best" from="546641257" to="7936314#1" type="passenger"/>
    <trip id="veh31" depart="33.77" departLane="best" from="23893810#0" to="177922838#0" type="passenger"/>
    <trip id="veh32" depart="34.86" departLane="best" from="338683089#0" to="43056321#1" type="passenger"/>
    <trip id="veh33" depart="35.95" departLane="best" from="113838783#0" to="23582606#3" type="passenger"/>
    <trip id="veh36" depart="39.22" departLane="best" from="177922838#0" to="43056321#1" type="passenger"/>
    <trip id="veh37" depart="40.31" departLane="best" from="113838783#1" to="10511797#1" type="passenger"/>
    <trip id="veh39" depart="42.48" departLane="best" from="23893810#0" to="243064143#1" type="passenger"/>
    <trip id="veh40" depart="43.57" departLane="best" from="7976448#0" to="10511797#0" type="passenger"/>
    <trip id="veh41" depart="44.66" departLane="best" from="23893810#0" to="23582606#4" type="passenger"/>
    <trip id="veh42" depart="45.75" departLane="best" from="23893810#0" to="23582606#0" type="passenger"/>
    <trip id="veh43" depart="46.84" departLane="best" from="338683089#0" to="-43056321#0" type="passenger"/>
    <trip id="veh44" depart="47.93" departLane="best" from="44356591#1" to="10511797#1" type="passenger"/>
    <trip id="veh46" depart="50.11" departLane="best" from="23893810#0" to="-43056321#0" type="passenger"/>
    <trip id="veh47" depart="51.20" departLane="best" from="23893810#0" to="7976448#1" type="passenger"/>
    <trip id="veh50" depart="54.47" departLane="best" from="338683089#1" to="43056321#1" type="passenger"/>
    <trip id="veh51" depart="55.56" departLane="best" from="7936457" to="363554495" type="passenger"/>
    <trip id="veh52" depart="56.65" departLane="best" from="338683089#0" to="43056322#0" type="passenger"/>
    <trip id="veh54" depart="58.83" departLane="best" from="338683089#0" to="7936314#1" type="passenger"/>
    <trip id="veh55" depart="59.91" departLane="best" from="363520361" to="43056321#1" type="passenger"/>
    <trip id="veh56" depart="61.00" departLane="best" from="177922838#0" to="10511797#1" type="passenger"/>
    <trip id="veh57" depart="62.09" departLane="best" from="23893810#0" to="363554495" type="passenger"/>
    <trip id="veh58" depart="63.18" departLane="best" from="338683089#0" to="7976448#1" type="passenger"/>
    <trip id="veh59" depart="64.27" departLane="best" from="113838783#0" to="43056321#1" type="passenger"/>
    <trip id="veh62" depart="67.54" departLane="best" from="177922838#2" to="7976448#1" type="passenger"/>
    <trip id="veh63" depart="68.63" departLane="best" from="546641257" to="7936314#1" type="passenger"/>
    <trip id="veh64" depart="69.72" departLane="best" from="23893810#0" to="10511797#1" type="passenger"/>
    <trip id="veh65" depart="70.81" departLane="best" from="44356591#0" to="43056321#1" type="passenger"/>
    <trip id="veh66" depart="71.90" departLane="best" from="363520361" to="7976448#1" type="passenger"/>
    <trip id="veh68" depart="74.08" departLane="best" from="-7976448#1" to="10511797#1" type="passenger"/>
    <trip id="veh70" depart="76.25" departLane="best" from="338683089#0" to="7936457" type="passenger"/>
    <trip id="veh71" depart="77.34" departLane="best" from="23893810#0" to="23582606#0" type="passenger"/>
    <trip id="veh74" depart="80.61" departLane="best" from="23893810#0" to="-43056321#0" type="passenger"/>
    <trip id="veh76" depart="82.79" departLane="best" from="-7976448#1" to="10511797#1" type="passenger"/>
    <trip id="veh77" depart="83.88" departLane="best" from="23893810#0" to="411908606" type="passenger"/>
    <trip id="veh81" depart="88.24" departLane="best" from="7936457" to="363554495" type="passenger"/>
    <trip id="veh82" depart="89.33" departLane="best" from="546641257" to="10511797#1" type="passenger"/>
    <trip id="veh85" depart="92.60" departLane="best" from="363520361" to="302113464" type="passenger"/>
    <trip id="veh86" depart="93.68" departLane="best" from="23893810#0" to="363554495" type="passenger"/>
    <trip id="veh87" depart="94.77" departLane="best" from="177922838#2" to="43056321#1" type="passenger"/>
    <trip id="veh89" depart="96.95" departLane="best" from="338683089#0" to="43056321#1" type="passenger"/>
    <trip id="veh90" depart="98.04" departLane="best" from="23893810#0" to="-43056321#0" type="passenger"/>
    <trip id="veh91" depart="99.13" departLane="best" from="23893810#0" to="23582606#2" type="passenger"/>
    <trip id="veh97" depart="105.67" departLane="best" from="363520361" to="23582606#4" type="passenger"/>
    <trip id="veh98" depart="106.76" departLane="best" from="23893810#0" to="411908606" type="passenger"/>
    <trip id="veh99" depart="107.85" departLane="best" from="113838783#0" to="43056321#1" type="passenger"/>
    <trip id="veh102" depart="111.11" departLane="best" from="338683089#0" to="-43056321#0" type="passenger"/>
    <trip id="veh103" depart="112.20" departLane="best" from="411908606" to="7976448#1" type="passenger"/>
    <trip id="veh104" depart="113.29" departLane="best" from="363520361" to="7976448#1" type="passenger"/>
    <trip id="veh105" depart="114.38" departLane="best" from="363520361" to="23582606#0" type="passenger"/>
    <trip id="veh107" depart="116.56" departLane="best" from="338683089#0" to="10511797#1" type="passenger"/>
    <trip id="veh108" depart="117.65" departLane="best" from="177922838#0" to="43056321#1" type="passenger"/>
    <trip id="veh109" depart="118.74" departLane="best" from="23893810#0" to="363554495" type="passenger"/>
    <trip id="veh110" depart="119.83" departLane="best" from="23893810#0" to="177922838#0" type="passenger"/>
    <trip id="veh111" depart="120.92" departLane="best" from="23893810#0" to="7936457" type="passenger"/>
    <trip id="veh112" depart="122.01" departLane="best" from="363520361" to="43056321#1" type="passenger"/>
    <trip id="veh113" depart="123.10" departLane="best" from="23893810#0" to="-43056321#0" type="passenger"/>
    <trip id="veh114" depart="124.19" departLane="best" from="23893810#0" to="43056322#1" type="passenger"/>
    <trip id="veh115" depart="125.28" departLane="best" from="23893810#0" to="43056322#0" type="passenger"/>
    <trip id="veh116" depart="126.37" departLane="best" from="338683089#0" to="363554496" type="passenger"/>
    <trip id="veh118" depart="128.54" departLane="best" from="23893810#0" to="10511797#1" type="passenger"/>
    <trip id="veh119" depart="129.63" departLane="best" from="302113464" to="10511797#1" type="passenger"/>
    <trip id="veh120" depart="130.72" departLane="best" from="23893810#0" to="363554495" type="passenger"/>
    <trip id="veh124" depart="135.08" departLane="best" from="113838783#1" to="23582606#4" type="passenger"/>
    <trip id="veh127" depart="138.35" departLane="best" from="-7976448#1" to="43056321#1" type="passenger"/>
    <trip id="veh130" depart="141.62" departLane="best" from="-7976448#1" to="-43056321#0" type="passenger"/>
    <trip id="veh134" depart="145.97" departLane="best" from="23893810#0" to="23582606#4" type="passenger"/>
    <trip id="veh138" depart="150.33" departLane="best" from="23893810#0" to="-43056321#0" type="passenger"/>
    <trip id="veh140" depart="152.51" departLane="best" from="-7976448#0" to="43056321#1" type="passenger"/>
    <trip id="veh141" depart="153.60" departLane="best" from="338683089#0" to="43056322#1" type="passenger"/>
    <trip id="veh142" depart="154.69" departLane="best" from="338683089#0" to="44356591#1" type="passenger"/>
    <trip id="veh145" depart="157.96" departLane="best" from="177922838#1" to="10511797#1" type="passenger"/>
    <trip id="veh146" depart="159.05" departLane="best" from="113838783#0" to="10511797#1" type="passenger"/>
    <trip id="veh147" depart="160.14" departLane="best" from="338683089#0" to="43056322#1" type="passenger"/>
    <trip id="veh148" depart="161.22" departLane="best" from="338683089#0" to="43056321#1" type="passenger"/>
    <trip id="veh149" depart="162.31" departLane="best" from="338683089#0" to="23582606#0" type="passenger"/>
    <trip id="veh150" depart="163.40" departLane="best" from="7936457" to="363554495" type="passenger"/>
    <trip id="veh151" depart="164.49" departLane="best" from="411909327#0" to="10511797#1" type="passenger"/>
    <trip id="veh155" depart="168.85" departLane="best" from="7976448#0" to="10511797#1" type="passenger"/>
    <trip id="veh157" depart="171.03" departLane="best" from="363520361" to="363554496" type="passenger"/>
    <trip id="veh161" depart="175.39" departLane="best" from="363520361" to="23582606#1" type="passenger"/>
    <trip id="veh162" depart="176.48" departLane="best" from="177922838#0" to="43056321#1" type="passenger"/>
    <trip id="veh163" depart="177.57" departLane="best" from="23893810#0" to="363554495" type="passenger"/>
    <trip id="veh165" depart="179.74" departLane="best" from="411909327#0" to="43056321#1" type="passenger"/>
    <trip id="veh166" depart="180.83" departLane="best" from="338683089#0" to="-7976448#0" type="passenger"/>
    <trip id="veh168" depart="183.01" departLane="best" from="338683089#0" to="10511797#0" type="passenger"/>
    <trip id="veh171" depart="186.28" departLane="best" from="23893810#0" to="302113464" type="passenger"/>
    <trip id="veh174" depart="189.55" departLane="best" from="338683089#0" to="7976448#1" type="passenger"/>
    <trip id="veh176" depart="191.73" departLane="best" from="338683089#0" to="10511797#0" type="passenger"/>
    <trip id="veh177" depart="192.82" departLane="best" from="302113464" to="10511797#1" type="passenger"/>
    <trip id="veh178" depart="193.91" departLane="best" from="546641257" to="7936314#1" type="passenger"/>
    <trip id="veh179" depart="194.99" departLane="best" from="23893810#0" to="7976448#1" type="passenger"/>
    <trip id="veh180" depart="196.08" departLane="best" from="338683089#0" to="7936314#0" type="passenger"/>
    <trip id="veh181" depart="197.17" departLane="best" from="363520361" to="7976448#1" type="passenger"/>
    <trip id="veh182" depart="198.26" departLane="best" from="338683089#0" to="10511797#1" type="passenger"/>
    <trip id="veh183" depart="199.35" departLane="best" from="338683089#0" to="363554495" type="passenger"/>
    <trip id="veh184" depart="200.44" departLane="best" from="10511797#0" to="43056321#1" type="passenger"/>
    <trip id="veh191" depart="208.07" departLane="best" from="23893810#0" to="23582606#3" type="passenger"/>
    <trip id="veh194" depart="211.34" departLane="best" from="-7976448#1" to="411909327#0" type="passenger"/>
    <trip id="veh199" depart="216.78" departLane="best" from="113838783#0" to="23582606#4" type="passenger"/>
    <trip id="veh200" depart="217.87" departLane="best" from="363520361" to="363554495" type="passenger"/>
    <trip id="veh202" depart="220.05" departLane="best" from="338683089#0" to="7936457" type="passenger"/>
    <trip id="veh203" depart="221.14" departLane="best" from="363520361" to="23582606#4" type="passenger"/>
    <trip id="veh204" depart="222.23" departLane="best" from="411908606" to="43056321#1" type="passenger"/>
    <trip id="veh206" depart="224.41" departLane="best" from="363520361" to="23582606#3" type="passenger"/>
    <trip id="veh209" depart="227.68" departLane="best" from="10511797#0" to="10511797#1" type="passenger"/>
    <trip id="veh210" depart="228.76" departLane="best" from="338683089#0" to="7976448#1" type="passenger"/>
    <trip id="veh211" depart="229.85" departLane="best" from="338683089#0" to="7976448#0" type="passenger"/>
    <trip id="veh216" depart="235.30" departLane="best" from="23893810#0" to="44356591#1" type="passenger"/>
    <trip id="veh218" depart="237.48" departLane="best" from="243065797" to="43056321#1" type="passenger"/>
    <trip id="veh219" depart="238.57" departLane="best" from="411908606" to="363554495" type="passenger"/>
    <trip id="veh223" depart="242.93" departLane="best" from="-7976448#1" to="7936314#1" type="passenger"/>
    <trip id="veh227" depart="247.28" departLane="best" from="23893810#0" to="10511797#0" type="passenger"/>
    <trip id="veh229" depart="249.46" departLane="best" from="23893810#0" to="243064143#1" type="passenger"/>
    <trip id="veh230" depart="250.55" departLane="best" from="546641257" to="7936314#1" type="passenger"/>
    <trip id="veh231" depart="251.64" departLane="best" from="-7976448#1" to="43056321#1" type="passenger"/>
    <trip id="veh232" depart="252.73" departLane="best" from="338683089#0" to="7976448#1" type="passenger"/>
    <trip id="veh233" depart="253.82" departLane="best" from="23893810#0" to="243064143#0" type="passenger"/>
    <trip id="veh234" depart="254.91" departLane="best" from="10511797#0" to="10511797#1" type="passenger"/>
    <trip id="veh237" depart="258.18" departLane="best" from="-7976448#1" to="7936457" type="passenger"/>
    <trip id="veh239" depart="260.36" departLane="best" from="-7976448#1" to="10511797#1" type="passenger"/>
    <trip id="veh240" depart="261.45" departLane="best" from="177922838#1" to="10511797#1" type="passenger"/>
    <trip id="veh242" depart="263.62" departLane="best" from="-7976448#1" to="-43056321#0" type="passenger"/>
    <trip id="veh247" depart="269.07" departLane="best" from="363520361" to="363554495" type="passenger"/>
    <trip id="veh250" depart="272.34" departLane="best" from="23893810#0" to="10511797#0" type="passenger"/>
    <trip id="veh251" depart="273.43" departLane="best" from="23893810#0" to="43056321#1" type="passenger"/>
    <trip id="veh252" depart="274.52" departLane="best" from="23893810#0" to="10511797#1" type="passenger"/>
    <trip id="veh253" depart="275.61" departLane="best" from="44356591#0" to="10511797#0" type="passenger"/>
    <trip id="veh254" depart="276.70" departLane="best" from="-7976448#1" to="43056322#0" type="passenger"/>
    <trip id="veh256" depart="278.88" departLane="best" from="363520361" to="363554495" type="passenger"/>
    <trip id="veh258" depart="281.05" departLane="best" from="23893810#0" to="43056321#1" type="passenger"/>
    <trip id="veh260" depart="283.23" departLane="best" from="363520361" to="23582606#4" type="passenger"/>
    <trip id="veh261" depart="284.32" departLane="best" from="-7976448#1" to="7936314#1" type="passenger"/>
    <trip id="veh262" depart="285.41" departLane="best" from="23893810#0" to="43056322#1" type="passenger"/>
    <trip id="veh263" depart="286.50" departLane="best" from="546641257" to="7936314#1" type="passenger"/>
    <trip id="veh264" depart="287.59" departLane="best" from="23893810#0" to="10511797#1" type="passenger"/>
    <trip id="veh265" depart="288.68" departLane="best" from="23893810#0" to="23582606#4" type="passenger"/>
    <trip id="veh266" depart="289.77" departLane="best" from="23893810#0" to="43056321#1" type="passenger"/>
    <trip id="veh269" depart="293.04" departLane="best" from="23893810#0" to="363554495" type="passenger"/>
    <trip id="veh271" depart="295.22" departLane="best" from="113838783#1" to="10511797#1" type="passenger"/>
    <trip id="veh274" depart="298.48" departLane="best" from="546641257" to="7936314#1" type="passenger"/>
    <trip id="veh275" depart="299.57" departLane="best" from="363520361" to="363554495" type="passenger"/>
    <trip id="veh276" depart="300.66" departLane="best" from="-7976448#1" to="-43056321#0" type="passenger"/>
    <trip id="veh277" depart="301.75" departLane="best" from="23893810#0" to="23582606#3" type="passenger"/>
    <trip id="veh278" depart="302.84" departLane="best" from="546641257" to="23582606#4" type="passenger"/>
    <trip id="veh279" depart="303.93" departLane="best" from="363520361" to="10511797#1" type="passenger"/>
    <trip id="veh286" depart="311.56" departLane="best" from="338683089#0" to="44356591#1" type="passenger"/>
    <trip id="veh289" depart="314.82" departLane="best" from="-7976448#1" to="-43056321#0" type="passenger"/>
    <trip id="veh290" depart="315.91" departLane="best" from="-7976448#1" to="7936457" type="passenger"/>
    <trip id="veh292" depart="318.09" departLane="best" from="338683089#0" to="10511797#1" type="passenger"/>
    <trip id="veh293" depart="319.18" departLane="best" from="546641257" to="7936314#1" type="passenger"/>
    <trip id="veh295" depart="321.36" departLane="best" from="23893810#0" to="363554495" type="passenger"/>
    <trip id="veh296" depart="322.45" departLane="best" from="546641257" to="23582606#3" type="passenger"/>
    <trip id="veh297" depart="323.54" departLane="best" from="23893810#0" to="44356591#1" type="passenger"/>
    <trip id="veh298" depart="324.63" departLane="best" from="44356591#0" to="43056322#0" type="passenger"/>
    <trip id="veh299" depart="325.72" departLane="best" from="23893810#0" to="23582606#4" type="passenger"/>
    <trip id="veh300" depart="326.81" departLane="best" from="177922838#0" to="10511797#1" type="passenger"/>
    <trip id="veh304" depart="331.16" departLane="best" from="23893810#0" to="10511797#1" type="passenger"/>
    <trip id="veh307" depart="334.43" departLane="best" from="23893810#0" to="338683089#1" type="passenger"/>
    <trip id="veh309" depart="336.61" departLane="best" from="-7976448#1" to="7936314#1" type="passenger"/>
    <trip id="veh310" depart="337.70" departLane="best" from="546641257" to="10511797#1" type="passenger"/>
    <trip id="veh312" depart="339.88" departLane="best" from="23893810#0" to="-43056321#0" type="passenger"/>
    <trip id="veh314" depart="342.06" departLane="best" from="177922838#0" to="7976448#1" type="passenger"/>
    <trip id="veh315" depart="343.15" departLane="best" from="23893810#0" to="-43056321#0" type="passenger"/>
    <trip id="veh316" depart="344.24" departLane="best" from="546641257" to="7936314#1" type="passenger"/>
    <trip id="veh317" depart="345.33" departLane="best" from="44356591#0" to="43056321#1" type="passenger"/>
    <trip id="veh318" depart="346.42" departLane="best" from="-7976448#1" to="43056321#1" type="passenger"/>
    <trip id="veh320" depart="348.59" departLane="best" from="23893810#0" to="44356591#1" type="passenger"/>
    <trip id="veh321" depart="349.68" departLane="best" from="243065797" to="10511797#1" type="passenger"/>
    <trip id="veh323" depart="351.86" departLane="best" from="177922838#1" to="10511797#1" type="passenger"/>
    <trip id="veh324" depart="352.95" departLane="best" from="338683089#0" to="302113464" type="passenger"/>
    <trip id="veh325" depart="354.04" departLane="best" from="23893810#0" to="243064143#1" type="passenger"/>
    <trip id="veh326" depart="355.13" departLane="best" from="363520361" to="7976448#1" type="passenger"/>
    <trip id="veh328" depart="357.31" departLane="best" from="338683089#0" to="7936314#0" type="passenger"/>
    <trip id="veh329" depart="358.40" departLane="best" from="302113464" to="43056321#1" type="passenger"/>
    <trip id="veh333" depart="362.76" departLane="best" from="338683089#0" to="7976448#1" type="passenger"/>
    <trip id="veh334" depart="363.84" departLane="best" from="338683089#0" to="177922838#3" type="passenger"/>
    <trip id="veh335" depart="364.93" departLane="best" from="23893810#0" to="44356591#1" type="passenger"/>
    <trip id="veh336" depart="366.02" departLane="best" from="546641257" to="23582606#4" type="passenger"/>
    <trip id="veh337" depart="367.11" departLane="best" from="338683089#0" to="7976448#0" type="passenger"/>
    <trip id="veh338" depart="368.20" departLane="best" from="338683089#0" to="44356591#2" type="passenger"/>
    <trip id="veh339" depart="369.29" departLane="best" from="23893810#0" to="43056321#1" type="passenger"/>
    <trip id="veh340" depart="370.38" departLane="best" from="23893810#0" to="-43056321#0" type="passenger"/>
    <trip id="veh341" depart="371.47" departLane="best" from="7936457" to="7976448#1" type="passenger"/>
    <trip id="veh343" depart="373.65" departLane="best" from="23893810#0" to="44356591#2" type="passenger"/>
    <trip id="veh344" depart="374.74" departLane="best" from="411908606" to="7976448#1" type="passenger"/>
    <trip id="veh346" depart="376.92" departLane="best" from="23893810#0" to="23582606#4" type="passenger"/>
    <trip id="veh347" depart="378.01" departLane="best" from="411908606" to="7976448#1" type="passenger"/>
    <trip id="veh348" depart="379.10" departLane="best" from="23893810#0" to="43056322#1" type="passenger"/>
    <trip id="veh349" depart="380.19" departLane="best" from="363520361" to="363554495" type="passenger"/>
    <trip id="veh350" depart="381.27" departLane="best" from="23893810#0" to="411909327#1" type="passenger"/>
    <trip id="veh351" depart="382.36" departLane="best" from="177922838#1" to="10511797#1" type="passenger"/>
    <trip id="veh352" depart="383.45" departLane="best" from="23893810#0" to="363554495" type="passenger"/>
    <trip id="veh353" depart="384.54" departLane="best" from="338683089#0" to="10511797#1" type="passenger"/>
    <trip id="veh356" depart="387.81" departLane="best" from="-7976448#0" to="43056321#1" type="passenger"/>
    <trip id="veh357" depart="388.90" departLane="best" from="338683089#0" to="7936314#1" type="passenger"/>
    <trip id="veh358" depart="389.99" departLane="best" from="44356591#1" to="43056321#1" type="passenger"/>
    <trip id="veh361" depart="393.26" departLane="best" from="23893810#0" to="44356591#2" type="passenger"/>
    <trip id="veh362" depart="394.35" departLane="best" from="338683089#0" to="363554496" type="passenger"/>
    <trip id="veh363" depart="395.44" departLane="best" from="7976448#0" to="43056321#1" type="passenger"/>
    <trip id="veh364" depart="396.53" departLane="best" from="338683089#0" to="44356591#0" type="passenger"/>
    <trip id="veh366" depart="398.70" departLane="best" from="243065797" to="43056321#1" type="passenger"/>
    <trip id="veh368" depart="400.88" departLane="best" from="-7976448#1" to="10511797#1" type="passenger"/>
    <trip id="veh370" depart="403.06" departLane="best" from="546641257" to="7936314#1" type="passenger"/>
    <trip id="veh371" depart="404.15" departLane="best" from="338683089#0" to="10511797#1" type="passenger"/>
    <trip id="veh372" depart="405.24" departLane="best" from="338683089#0" to="10511797#1" type="passenger"/>
    <trip id="veh373" depart="406.33" departLane="best" from="546641257" to="10511797#1" type="passenger"/>
    <trip id="veh375" depart="408.51" departLane="best" from="363520361" to="363554495" type="passenger"/>
    <trip id="veh376" depart="409.60" departLane="best" from="23893810#0" to="411909327#0" type="passenger"/>
    <trip id="veh378" depart="411.78" departLane="best" from="338683089#0" to="44356591#2" type="passenger"/>
    <trip id="veh380" depart="413.96" departLane="best" from="7936457" to="10511797#1" type="passenger"/>
    <trip id="veh381" depart="415.04" departLane="best" from="23893810#0" to="363554495" type="passenger"/>
    <trip id="veh383" depart="417.22" departLane="best" from="23893810#0" to="363554496" type="passenger"/>
    <trip id="veh384" depart="418.31" departLane="best" from="363520361" to="23582606#3" type="passenger"/>
    <trip id="veh385" depart="419.40" departLane="best" from="338683089#0" to="243065797" type="passenger"/>
    <trip id="veh386" depart="420.49" departLane="best" from="23893810#0" to="-43056321#0" type="passenger"/>
    <trip id="veh387" depart="421.58" departLane="best" from="338683089#0" to="7936314#1" type="passenger"/>
    <trip id="veh389" depart="423.76" departLane="best" from="338683089#0" to="7936314#1" type="passenger"/>
    <trip id="veh390" depart="424.85" departLane="best" from="23893810#0" to="243064143#0" type="passenger"/>
    <trip id="veh391" depart="425.94" departLane="best" from="338683089#0" to="-7976448#0" type="passenger"/>
    <trip id="veh392" depart="427.03" departLane="best" from="338683089#0" to="43056322#1" type="passenger"/>
    <trip id="veh393" depart="428.12" departLane="best" from="411908606" to="10511797#1" type="passenger"/>
    <trip id="veh394" depart="429.21" departLane="best" from="7936457" to="23582606#4" type="passenger"/>
    <trip id="veh396" depart="431.39" departLane="best" from="338683089#0" to="-43056321#0" type="passenger"/>
    <trip id="veh398" depart="433.56" departLane="best" from="338683089#0" to="43056321#1" type="passenger"/>
    <trip id="veh399" depart="434.65" departLane="best" from="23893810#0" to="43056321#1" type="passenger"/>
    <trip id="veh400" depart="435.74" departLane="best" from="7936457" to="363554495" type="passenger"/>
    <trip id="veh401" depart="436.83" departLane="best" from="363520361" to="43056321#1" type="passenger"/>
    <trip id="veh402" depart="437.92" departLane="best" from="363520361" to="10511797#1" type="passenger"/>
    <trip id="veh403" depart="439.01" departLane="best" from="44356591#0" to="10511797#1" type="passenger"/>
    <trip id="veh404" depart="440.10" departLane="best" from="546641257" to="10511797#1" type="passenger"/>
    <trip id="veh406" depart="442.28" departLane="best" from="-7976448#1" to="43056321#1" type="passenger"/>
    <trip id="veh407" depart="443.37" departLane="best" from="23893810#0" to="44356591#0" type="passenger"/>
    <trip id="veh408" depart="444.46" departLane="best" from="546641257" to="7936314#1" type="passenger"/>
    <trip id="veh411" depart="447.73" departLane="best" from="363520361" to="43056321#1" type="passenger"/>
    <trip id="veh412" depart="448.81" departLane="best" from="363520361" to="113838783#1" type="passenger"/>
    <trip id="veh413" depart="449.90" departLane="best" from="177922838#1" to="363554495" type="passenger"/>
    <trip id="veh414" depart="450.99" departLane="best" from="177922838#0" to="7976448#1" type="passenger"/>
    <trip id="veh415" depart="452.08" departLane="best" from="113838783#1" to="43056321#1" type="passenger"/>
    <trip id="veh417" depart="454.26" departLane="best" from="338683089#0" to="113838783#1" type="passenger"/>
    <trip id="veh418" depart="455.35" departLane="best" from="338683089#0" to="7976448#1" type="passenger"/>
    <trip id="veh419" depart="456.44" departLane="best" from="411909327#0" to="10511797#1" type="passenger"/>
    <trip id="veh420" depart="457.53" departLane="best" from="363520361" to="363554495" type="passenger"/>
    <trip id="veh421" depart="458.62" departLane="best" from="177922838#1" to="43056321#1" type="passenger"/>
    <trip id="veh422" depart="459.71" departLane="best" from="338683089#0" to="411909327#0" type="passenger"/>
    <trip id="veh424" depart="461.89" departLane="best" from="338683089#0" to="7976448#1" type="passenger"/>
    <trip id="veh425" depart="462.98" departLane="best" from="23893810#0" to="7976448#1" type="passenger"/>
    <trip id="veh427" depart="465.16" departLane="best" from="113838783#0" to="7976448#1" type="passenger"/>
    <trip id="veh428" depart="466.24" departLane="best" from="363520361" to="363554495" type="passenger"/>
    <trip id="veh430" depart="468.42" departLane="best" from="546641257" to="10511797#1" type="passenger"/>
    <trip id="veh431" depart="469.51" departLane="best" from="546641257" to="10511797#1" type="passenger"/>
    <trip id="veh432" depart="470.60" departLane="best" from="23893810#0" to="243065797" type="passenger"/>