<?xml version="1.0"?>
<!-- generated on 2017-12-19 00:57:33.498518 by $Id: route2trips.py 25256 2017-07-19 06:38:15Z behrisch $ via randomTrips.py
  options: 
-->
<routes xmlns:xsi="http://www.w3.org/2001/XMLSchema-instance" xsi:noNamespaceSchemaLocation="http://sumo.dlr.de/xsd/routes_file.xsd">
    <vType id="bus" vClass="bus">
    </vType>
    <trip id="bus0" depart="0.00" departLane="best" from="-23582606#1" to="10511797#1" type="bus"/>
    <trip id="bus1" depart="10.68" departLane="best" from="177922838#1" to="10511797#1" type="bus"/>
    <trip id="bus2" depart="21.36" departLane="best" from="177922838#3" to="10511797#1" type="bus"/>
    <trip id="bus3" depart="32.05" departLane="best" from="338683089#0" to="43056321#1" type="bus"/>
    <trip id="bus4" depart="42.73" departLane="best" from="23582606#1" to="10511797#1" type="bus"/>
    <trip id="bus6" depart="64.09" departLane="best" from="338683089#0" to="10511797#1" type="bus"/>
    <trip id="bus7" depart="74.77" departLane="best" from="23582606#3" to="10511797#1" type="bus"/>
    <trip id="bus8" depart="85.45" departLane="best" from="-7976448#1" to="10511797#1" type="bus"/>
    <trip id="bus9" depart="96.14" departLane="best" from="44356591#0" to="10511797#1" type="bus"/>
    <trip id="bus10" depart="106.82" departLane="best" from="23893810#0" to="10511797#1" type="bus"/>
    <trip id="bus11" depart="117.50" departLane="best" from="338683089#0" to="43056321#1" type="bus"/>
    <trip id="bus12" depart="128.18" departLane="best" from="338683089#0" to="43056321#1" type="bus"/>
    <trip id="bus13" depart="138.86" departLane="best" from="-23582606#4" to="10511797#1" type="bus"/>
    <trip id="bus14" depart="149.54" departLane="best" from="-23582606#4" to="10511797#1" type="bus"/>
    <trip id="bus15" depart="160.23" departLane="best" from="177922838#3" to="10511797#1" type="bus"/>
    <trip id="bus16" depart="170.91" departLane="best" from="411908606" to="10511797#1" type="bus"/>
    <trip id="bus17" depart="181.59" departLane="best" from="-23582606#1" to="10511797#1" type="bus"/>
    <trip id="bus18" depart="192.27" departLane="best" from="23893810#0" to="10511797#1" type="bus"/>
    <trip id="bus19" depart="202.95" departLane="best" from="23582606#2" to="10511797#1" type="bus"/>
    <trip id="bus20" depart="213.63" departLane="best" from="338683089#0" to="43056321#1" type="bus"/>
    <trip id="bus21" depart="224.32" departLane="best" from="-7976448#1" to="10511797#1" type="bus"/>
    <trip id="bus22" depart="235.00" departLane="best" from="23582606#2" to="10511797#1" type="bus"/>
    <trip id="bus23" depart="245.68" departLane="best" from="338683089#0" to="10511797#1" type="bus"/>
    <trip id="bus24" depart="256.36" departLane="best" from="23893810#0" to="43056321#1" type="bus"/>
    <trip id="bus25" depart="267.04" departLane="best" from="23893810#0" to="363554495" type="bus"/>
    <trip id="bus26" depart="277.73" departLane="best" from="44356591#0" to="10511797#1" type="bus"/>
    <trip id="bus27" depart="288.41" departLane="best" from="23893810#0" to="43056322#0" type="bus"/>
    <trip id="bus28" depart="299.09" departLane="best" from="-23582606#4" to="10511797#1" type="bus"/>
    <trip id="bus29" depart="309.77" departLane="best" from="23893810#0" to="43056321#1" type="bus"/>
    <trip id="bus30" depart="320.45" departLane="best" from="-7976448#0" to="10511797#1" type="bus"/>
    <trip id="bus31" depart="331.13" departLane="best" from="23893810#0" to="-43056321#0" type="bus"/>
    <trip id="bus32" depart="341.82" departLane="best" from="23893810#0" to="-43056321#0" type="bus"/>
    <trip id="bus33" depart="352.50" departLane="best" from="23893810#0" to="43056321#1" type="bus"/>
    <trip id="bus34" depart="363.18" departLane="best" from="23893810#0" to="-43056321#0" type="bus"/>
    <trip id="bus35" depart="373.86" departLane="best" from="23893810#0" to="10511797#0" type="bus"/>
    <trip id="bus36" depart="384.54" departLane="best" from="23893810#0" to="363554495" type="bus"/>
    <trip id="bus37" depart="395.22" departLane="best" from="-7976448#0" to="10511797#1" type="bus"/>
    <trip id="bus38" depart="405.91" departLane="best" from="-7976448#1" to="10511797#1" type="bus"/>
    <trip id="bus39" depart="416.59" departLane="best" from="411908606" to="10511797#1" type="bus"/>
    <trip id="bus40" depart="427.27" departLane="best" from="338683089#0" to="10511797#1" type="bus"/>
    <trip id="bus41" depart="437.95" departLane="best" from="-7976448#1" to="10511797#1" type="bus"/>
    <trip id="bus43" depart="459.32" departLane="best" from="23582606#0" to="10511797#1" type="bus"/>
    <trip id="bus44" depart="470.00" departLane="best" from="23893810#0" to="-43056321#0" type="bus"/>
    <trip id="bus45" depart="480.68" departLane="best" from="23893810#0" to="43056321#1" type="bus"/>
    <trip id="bus46" depart="491.36" departLane="best" from="-23582606#3" to="10511797#1" type="bus"/>
    <trip id="bus47" depart="502.04" departLane="best" from="23893810#0" to="-43056321#0" type="bus"/>
    <trip id="bus48" depart="512.72" departLane="best" from="-23582606#4" to="10511797#1" type="bus"/>
    <trip id="bus50" depart="534.09" departLane="best" from="23893810#0" to="363554496" type="bus"/>
    <trip id="bus51" depart="544.77" departLane="best" from="338683089#0" to="10511797#1" type="bus"/>
    <trip id="bus52" depart="555.45" departLane="best" from="338683089#0" to="43056321#1" type="bus"/>
    <trip id="bus53" depart="566.13" departLane="best" from="338683089#0" to="10511797#1" type="bus"/>
    <trip id="bus54" depart="576.81" departLane="best" from="338683089#0" to="10511797#1" type="bus"/>
    <trip id="bus55" depart="587.50" departLane="best" from="23893810#0" to="10511797#1" type="bus"/>
    <trip id="bus56" depart="598.18" departLane="best" from="23893810#0" to="10511797#1" type="bus"/>
    <trip id="bus57" depart="608.86" departLane="best" from="-23582606#4" to="10511797#1" type="bus"/>
    <trip id="bus58" depart="619.54" departLane="best" from="338683089#1" to="10511797#1" type="bus"/>
    <trip id="bus59" depart="630.22" departLane="best" from="23893810#0" to="43056321#1" type="bus"/>
    <trip id="bus60" depart="640.90" departLane="best" from="-23582606#1" to="10511797#1" type="bus"/>
    <trip id="bus61" depart="651.59" departLane="best" from="338683089#0" to="43056321#1" type="bus"/>
    <trip id="bus62" depart="662.27" departLane="best" from="-7976448#1" to="10511797#1" type="bus"/>
    <trip id="bus63" depart="672.95" departLane="best" from="-23582606#3" to="10511797#1" type="bus"/>
    <trip id="bus64" depart="683.63" departLane="best" from="-23582606#4" to="10511797#1" type="bus"/>
    <trip id="bus65" depart="694.31" departLane="best" from="-23582606#4" to="10511797#1" type="bus"/>
    <trip id="bus66" depart="705.00" departLane="best" from="338683089#0" to="10511797#1" type="bus"/>
    <trip id="bus67" depart="715.68" departLane="best" from="338683089#0" to="10511797#1" type="bus"/>
    <trip id="bus68" depart="726.36" departLane="best" from="23893810#0" to="363554495" type="bus"/>
    <trip id="bus69" depart="737.04" departLane="best" from="23893810#0" to="10511797#1" type="bus"/>
    <trip id="bus70" depart="747.72" departLane="best" from="23893810#0" to="43056321#1" type="bus"/>
    <trip id="bus71" depart="758.40" departLane="best" from="338683089#1" to="10511797#1" type="bus"/>
    <trip id="bus72" depart="769.09" departLane="best" from="44356591#1" to="10511797#1" type="bus"/>
    <trip id="bus73" depart="779.77" departLane="best" from="23893810#0" to="10511797#0" type="bus"/>
    <trip id="bus74" depart="790.45" departLane="best" from="-7976448#0" to="10511797#1" type="bus"/>
    <trip id="bus75" depart="801.13" departLane="best" from="23893810#0" to="363554495" type="bus"/>
    <trip id="bus76" depart="811.81" departLane="best" from="23893810#0" to="363554496" type="bus"/>
    <trip id="bus77" depart="822.49" departLane="best" from="23582606#3" to="10511797#1" type="bus"/>
    <trip id="bus78" depart="833.18" departLane="best" from="23893810#0" to="363554495" type="bus"/>
    <trip id="bus79" depart="843.86" departLane="best" from="411908606" to="10511797#1" type="bus"/>
    <trip id="bus80" depart="854.54" departLane="best" from="23893810#0" to="363554495" type="bus"/>
    <trip id="bus81" depart="865.22" departLane="best" from="23893810#0" to="363554495" type="bus"/>
    <trip id="bus82" depart="875.90" departLane="best" from="23893810#0" to="43056322#1" type="bus"/>
    <trip id="bus83" depart="886.58" departLane="best" from="23893810#0" to="-43056321#0" type="bus"/>
    <trip id="bus84" depart="897.27" departLane="best" from="338683089#0" to="10511797#1" type="bus"/>
    <trip id="bus85" depart="907.95" departLane="best" from="-23582606#4" to="10511797#1" type="bus"/>
    <trip id="bus86" depart="918.63" departLane="best" from="338683089#0" to="10511797#1" type="bus"/>
    <trip id="bus87" depart="929.31" departLane="best" from="-23582606#4" to="10511797#1" type="bus"/>
    <trip id="bus88" depart="939.99" departLane="best" from="23893810#0" to="-43056321#0" type="bus"/>
    <trip id="bus89" depart="950.68" departLane="best" from="338683089#0" to="43056321#1" type="bus"/>
    <trip id="bus90" depart="961.36" departLane="best" from="-23582606#2" to="10511797#1" type="bus"/>
    <trip id="bus91" depart="972.04" departLane="best" from="338683089#0" to="10511797#1" type="bus"/>
    <trip id="bus92" depart="982.72" departLane="best" from="23893810#0" to="43056322#0" type="bus"/>
    <trip id="bus93" depart="993.40" departLane="best" from="-23582606#2" to="10511797#1" type="bus"/>
</routes>
