<?xml version="1.0" ?><!-- generated on 08/28/13 08:35:45 by SUMO netconvert Version 0.18.0
<?xml version="1.0" encoding="UTF-8"?>

<configuration xmlns:xsi="http://www.w3.org/2001/XMLSchema-instance" xsi:noNamespaceSchemaLocation="http://sumo.sf.net/xsd/netconvertConfiguration.xsd">

    <input>
        <node-files value="data/input_nodes.nod.xml"/>
        <edge-files value="data/input_edges.edg.xml"/>
        <connection-files value="data/input_connections.con.xml"/>
    </input>

    <output>
        <output-file value="data/rilsa1.net.xml"/>
    </output>

    <processing>
        <no-turnarounds value="true"/>
    </processing>

    <report>
        <verbose value="true"/>
    </report>

</configuration>
--><net version="0.13" xmlns:xsi="http://www.w3.org/2001/XMLSchema-instance" xsi:noNamespaceSchemaLocation="http://sumo.sf.net/xsd/net_file.xsd">

    <location convBoundary="0.00,0.00,1000.00,1000.00" netOffset="500.00,500.00" origBoundary="-500.00,-500.00,500.00,500.00" projParameter="!"/>

    <edge function="internal" id=":0_0">
        <lane id=":0_0_0" index="0" length="7.85" shape="495.05,508.05 494.86,505.25 494.28,503.25 493.31,502.05 491.95,501.65" speed="13.90"/>
    </edge>
    <edge function="internal" id=":0_1">
        <lane id=":0_1_0" index="0" length="16.51" shape="495.05,508.05 495.57,502.77 496.70,498.79 497.83,495.42 498.35,491.95" speed="13.90"/>
    </edge>
    <edge function="internal" id=":0_2">
        <lane id=":0_2_0" index="0" length="4.74" shape="498.35,508.05 498.96,503.81 499.19,503.41" speed="13.90"/>
    </edge>
    <edge function="internal" id=":0_12">
        <lane id=":0_12_0" index="0" length="10.90" shape="499.19,503.41 500.78,500.77 503.81,498.96 508.05,498.35" speed="13.90"/>
    </edge>
    <edge function="internal" id=":0_3">
        <lane id=":0_3_0" index="0" length="7.85" shape="508.05,504.95 505.25,505.14 503.25,505.72 502.05,506.69 501.65,508.05" speed="13.90"/>
    </edge>
    <edge function="internal" id=":0_4">
        <lane id=":0_4_0" index="0" length="16.51" shape="508.05,504.95 502.77,504.43 498.79,503.30 495.42,502.17 491.95,501.65" speed="13.90"/>
    </edge>
    <edge function="internal" id=":0_5">
        <lane id=":0_5_0" index="0" length="4.74" shape="508.05,501.65 503.81,501.04 503.41,500.81" speed="13.90"/>
    </edge>
    <edge function="internal" id=":0_13">
        <lane id=":0_13_0" index="0" length="10.90" shape="503.41,500.81 500.77,499.22 498.96,496.19 498.35,491.95" speed="13.90"/>
    </edge>
    <edge function="internal" id=":0_6">
        <lane id=":0_6_0" index="0" length="7.85" shape="504.95,491.95 505.14,494.75 505.72,496.75 506.69,497.95 508.05,498.35" speed="13.90"/>
    </edge>
    <edge function="internal" id=":0_7">
        <lane id=":0_7_0" index="0" length="16.51" shape="504.95,491.95 504.43,497.23 503.30,501.21 502.17,504.58 501.65,508.05" speed="13.90"/>
    </edge>
    <edge function="internal" id=":0_8">
        <lane id=":0_8_0" index="0" length="4.74" shape="501.65,491.95 501.04,496.19 500.81,496.59" speed="13.90"/>
    </edge>
    <edge function="internal" id=":0_14">
        <lane id=":0_14_0" index="0" length="10.90" shape="500.81,496.59 499.22,499.23 496.19,501.04 491.95,501.65" speed="13.90"/>
    </edge>
    <edge function="internal" id=":0_9">
        <lane id=":0_9_0" index="0" length="7.85" shape="491.95,495.05 494.75,494.86 496.75,494.28 497.95,493.31 498.35,491.95" speed="13.90"/>
    </edge>
    <edge function="internal" id=":0_10">
        <lane id=":0_10_0" index="0" length="16.51" shape="491.95,495.05 497.23,495.57 501.21,496.70 504.58,497.83 508.05,498.35" speed="13.90"/>
    </edge>
    <edge function="internal" id=":0_11">
        <lane id=":0_11_0" index="0" length="4.74" shape="491.95,498.35 496.19,498.96 496.59,499.19" speed="13.90"/>
    </edge>
    <edge function="internal" id=":0_15">
        <lane id=":0_15_0" index="0" length="10.90" shape="496.59,499.19 499.23,500.78 501.04,503.81 501.65,508.05" speed="13.90"/>
    </edge>

    <edge from="e" id="em" priority="-1" to="0">
        <lane id="em_0" index="0" length="491.95" shape="1000.00,504.95 508.05,504.95" speed="13.90"/>
        <lane id="em_1" index="1" length="491.95" shape="1000.00,501.65 508.05,501.65" speed="13.90"/>
    </edge>
    <edge from="0" id="me" priority="-1" to="e">
        <lane id="me_0" index="0" length="491.95" shape="508.05,498.35 1000.00,498.35" speed="13.90"/>
    </edge>
    <edge from="0" id="mn" priority="-1" to="n">
        <lane id="mn_0" index="0" length="491.95" shape="501.65,508.05 501.65,1000.00" speed="13.90"/>
    </edge>
    <edge from="0" id="ms" priority="-1" to="s">
        <lane id="ms_0" index="0" length="491.95" shape="498.35,491.95 498.35,0.00" speed="13.90"/>
    </edge>
    <edge from="0" id="mw" priority="-1" to="w">
        <lane id="mw_0" index="0" length="491.95" shape="491.95,501.65 0.00,501.65" speed="13.90"/>
    </edge>
    <edge from="n" id="nm" priority="-1" to="0">
        <lane id="nm_0" index="0" length="491.95" shape="495.05,1000.00 495.05,508.05" speed="13.90"/>
        <lane id="nm_1" index="1" length="491.95" shape="498.35,1000.00 498.35,508.05" speed="13.90"/>
    </edge>
    <edge from="s" id="sm" priority="-1" to="0">
        <lane id="sm_0" index="0" length="491.95" shape="504.95,0.00 504.95,491.95" speed="13.90"/>
        <lane id="sm_1" index="1" length="491.95" shape="501.65,0.00 501.65,491.95" speed="13.90"/>
    </edge>
    <edge from="w" id="wm" priority="-1" to="0">
        <lane id="wm_0" index="0" length="491.95" shape="0.00,495.05 491.95,495.05" speed="13.90"/>
        <lane id="wm_1" index="1" length="491.95" shape="0.00,498.35 491.95,498.35" speed="13.90"/>
    </edge>

    <tlLogic id="0" offset="0" programID="0" type="static">
        <phase duration="11" state="rrrGGgrrrGGg"/>
        <phase duration="4" state="rrryygrrryyg"/>
        <phase duration="4" state="rrrrrGrrrrrG"/>
        <phase duration="4" state="rrrrryrrrrry"/>
        <phase duration="13" state="GGgrrrGGgrrr"/>
        <phase duration="5" state="yygrrryygrrr"/>
        <phase duration="3" state="rrGrrrrrGrrr"/>
        <phase duration="11" state="rryrrrrryrrr"/>
    </tlLogic>

    <junction id="0" incLanes="nm_0 nm_1 em_0 em_1 sm_0 sm_1 wm_0 wm_1" intLanes=":0_0_0 :0_1_0 :0_12_0 :0_3_0 :0_4_0 :0_13_0 :0_6_0 :0_7_0 :0_14_0 :0_9_0 :0_10_0 :0_15_0" shape="493.45,508.05 503.25,508.05 508.05,506.55 508.05,496.75 506.55,491.95 496.75,491.95 491.95,493.45 491.95,503.25" type="traffic_light" x="500.00" y="500.00">
        <request cont="0" foes="000100010000" index="0" response="000000000000"/>
        <request cont="0" foes="111100110000" index="1" response="000000000000"/>
        <request cont="1" foes="110011110000" index="2" response="000011000000"/>
        <request cont="0" foes="100010000000" index="3" response="000010000000"/>
        <request cont="0" foes="100110000111" index="4" response="000110000111"/>
        <request cont="1" foes="011110000110" index="5" response="011110000110"/>
        <request cont="0" foes="010000000100" index="6" response="000000000000"/>
        <request cont="0" foes="110000111100" index="7" response="000000000000"/>
        <request cont="1" foes="110000110011" index="8" response="000000000011"/>
        <request cont="0" foes="000000100010" index="9" response="000000000010"/>
        <request cont="0" foes="000111100110" index="10" response="000111000110"/>
        <request cont="1" foes="000110011110" index="11" response="000110011110"/>
    </junction>
    <junction id="e" incLanes="me_0" intLanes="" shape="1000.00,500.05 1000.00,506.55 1000.00,496.75 1000.00,499.95" type="dead_end" x="1000.00" y="500.00"/>
    <junction id="n" incLanes="mn_0" intLanes="" shape="499.95,1000.00 493.45,1000.00 503.25,1000.00 500.05,1000.00" type="dead_end" x="500.00" y="1000.00"/>
    <junction id="s" incLanes="ms_0" intLanes="" shape="500.05,-0.00 506.55,-0.00 496.75,0.00 499.95,0.00" type="dead_end" x="500.00" y="0.00"/>
    <junction id="w" incLanes="mw_0" intLanes="" shape="-0.00,499.95 -0.00,493.45 0.00,503.25 0.00,500.05" type="dead_end" x="0.00" y="500.00"/>

    <junction id=":0_12_0" incLanes=":0_2_0 sm_0" intLanes=":0_4_0 :0_5_0 :0_6_0 :0_7_0 :0_10_0 :0_11_0" type="internal" x="499.19" y="503.41"/>
    <junction id=":0_13_0" incLanes=":0_5_0 nm_0 sm_0 wm_0" intLanes=":0_1_0 :0_2_0 :0_7_0 :0_8_0 :0_9_0 :0_10_0" type="internal" x="503.41" y="500.81"/>
    <junction id=":0_14_0" incLanes=":0_8_0 nm_0" intLanes=":0_0_0 :0_1_0 :0_4_0 :0_5_0 :0_10_0 :0_11_0" type="internal" x="500.81" y="496.59"/>
    <junction id=":0_15_0" incLanes=":0_11_0 em_0 nm_0 sm_0" intLanes=":0_1_0 :0_2_0 :0_3_0 :0_4_0 :0_7_0 :0_8_0" type="internal" x="496.59" y="499.19"/>

    <connection dir="r" from="em" fromLane="0" linkIndex="3" state="o" tl="0" to="mn" toLane="0" via=":0_3_0"/>
    <connection dir="s" from="em" fromLane="0" linkIndex="4" state="o" tl="0" to="mw" toLane="0" via=":0_4_0"/>
    <connection dir="l" from="em" fromLane="1" linkIndex="5" state="o" tl="0" to="ms" toLane="0" via=":0_5_0"/>
    <connection dir="r" from="nm" fromLane="0" linkIndex="0" state="o" tl="0" to="mw" toLane="0" via=":0_0_0"/>
    <connection dir="s" from="nm" fromLane="0" linkIndex="1" state="o" tl="0" to="ms" toLane="0" via=":0_1_0"/>
    <connection dir="l" from="nm" fromLane="1" linkIndex="2" state="o" tl="0" to="me" toLane="0" via=":0_2_0"/>
    <connection dir="r" from="sm" fromLane="0" linkIndex="6" state="o" tl="0" to="me" toLane="0" via=":0_6_0"/>
    <connection dir="s" from="sm" fromLane="0" linkIndex="7" state="o" tl="0" to="mn" toLane="0" via=":0_7_0"/>
    <connection dir="l" from="sm" fromLane="1" linkIndex="8" state="o" tl="0" to="mw" toLane="0" via=":0_8_0"/>
    <connection dir="r" from="wm" fromLane="0" linkIndex="9" state="o" tl="0" to="ms" toLane="0" via=":0_9_0"/>
    <connection dir="s" from="wm" fromLane="0" linkIndex="10" state="o" tl="0" to="me" toLane="0" via=":0_10_0"/>
    <connection dir="l" from="wm" fromLane="1" linkIndex="11" state="o" tl="0" to="mn" toLane="0" via=":0_11_0"/>

    <connection dir="s" from=":0_0" fromLane="0" state="M" to="mw" toLane="0"/>
    <connection dir="s" from=":0_1" fromLane="0" state="M" to="ms" toLane="0"/>
    <connection dir="s" from=":0_2" fromLane="0" state="M" to="me" toLane="0" via=":0_12_0"/>
    <connection dir="s" from=":0_12" fromLane="0" state="M" to="me" toLane="0"/>
    <connection dir="s" from=":0_3" fromLane="0" state="M" to="mn" toLane="0"/>
    <connection dir="s" from=":0_4" fromLane="0" state="M" to="mw" toLane="0"/>
    <connection dir="s" from=":0_5" fromLane="0" state="M" to="ms" toLane="0" via=":0_13_0"/>
    <connection dir="s" from=":0_13" fromLane="0" state="M" to="ms" toLane="0"/>
    <connection dir="s" from=":0_6" fromLane="0" state="M" to="me" toLane="0"/>
    <connection dir="s" from=":0_7" fromLane="0" state="M" to="mn" toLane="0"/>
    <connection dir="s" from=":0_8" fromLane="0" state="M" to="mw" toLane="0" via=":0_14_0"/>
    <connection dir="s" from=":0_14" fromLane="0" state="M" to="mw" toLane="0"/>
    <connection dir="s" from=":0_9" fromLane="0" state="M" to="ms" toLane="0"/>
    <connection dir="s" from=":0_10" fromLane="0" state="M" to="me" toLane="0"/>
    <connection dir="s" from=":0_11" fromLane="0" state="M" to="mn" toLane="0" via=":0_15_0"/>
    <connection dir="s" from=":0_15" fromLane="0" state="M" to="mn" toLane="0"/>

</net>