<net xmlns:xsi="http://www.w3.org/2001/XMLSchema-instance" junctionCornerDetail="5" version="0.27" xsi:noNamespaceSchemaLocation="http://sumo.dlr.de/xsd/net_file.xsd">

    <location convBoundary="0.00,0.00,2832.07,2460.48" netOffset="-696601.99,-5181924.65" origBoundary="23.371162,46.745384,23.716672,46.793928" projParameter="+proj=utm +zone=34 +ellps=WGS84 +datum=WGS84 +units=m +no_defs" />

    <type allow="pedestrian" id="highway.bridleway" numLanes="1" oneway="1" priority="1" speed="2.78" width="2.00" />
    <type allow="bus" id="highway.bus_guideway" numLanes="1" oneway="1" priority="1" speed="8.33" />
    <type allow="bicycle" id="highway.cycleway" numLanes="1" oneway="0" priority="1" speed="5.56" width="1.00" />
    <type allow="pedestrian" id="highway.footway" numLanes="1" oneway="1" priority="1" speed="2.78" width="2.00" />
    <type allow="army" id="highway.ford" numLanes="1" oneway="0" priority="1" speed="2.78" />
    <type disallow="tram rail_urban rail rail_electric ship" id="highway.living_street" numLanes="1" oneway="0" priority="3" speed="2.78" />
    <type allow="private emergency authority army vip passenger hov taxi bus coach delivery truck trailer motorcycle evehicle custom1 custom2" id="highway.motorway" numLanes="2" oneway="1" priority="13" speed="44.44" />
    <type allow="private emergency authority army vip passenger hov taxi bus coach delivery truck trailer motorcycle evehicle custom1 custom2" id="highway.motorway_link" numLanes="1" oneway="1" priority="12" speed="22.22" />
    <type allow="bicycle pedestrian" id="highway.path" numLanes="1" oneway="1" priority="1" speed="2.78" width="2.00" />
    <type allow="pedestrian" id="highway.pedestrian" numLanes="1" oneway="1" priority="1" speed="2.78" width="2.00" />
    <type disallow="tram rail_urban rail rail_electric ship" id="highway.primary" numLanes="2" oneway="0" priority="9" speed="27.78" />
    <type disallow="tram rail_urban rail rail_electric ship" id="highway.primary_link" numLanes="1" oneway="0" priority="8" speed="22.22" />
    <type disallow="rail_urban rail rail_electric ship" id="highway.primary|railway.tram" numLanes="2" oneway="0" priority="15" speed="27.78" />
    <type allow="vip" id="highway.raceway" numLanes="2" oneway="0" priority="14" speed="83.33" />
    <type disallow="tram rail_urban rail rail_electric ship" id="highway.residential" numLanes="1" oneway="0" priority="4" speed="13.89" />
    <type disallow="tram rail_urban rail rail_electric ship" id="highway.secondary" numLanes="2" oneway="0" priority="7" speed="27.78" />
    <type disallow="tram rail_urban rail rail_electric ship" id="highway.secondary_link" numLanes="1" oneway="0" priority="6" speed="22.22" />
    <type allow="delivery bicycle pedestrian" id="highway.service" numLanes="1" oneway="0" priority="2" speed="5.56" />
    <type disallow="tram rail_urban rail rail_electric ship" id="highway.services" numLanes="1" oneway="0" priority="1" speed="8.33" />
    <type allow="pedestrian" id="highway.stairs" numLanes="1" oneway="1" priority="1" speed="1.39" width="2.00" />
    <type allow="pedestrian" id="highway.step" numLanes="1" oneway="1" priority="1" speed="1.39" width="2.00" />
    <type allow="pedestrian" id="highway.steps" numLanes="1" oneway="1" priority="1" speed="1.39" width="2.00" />
    <type disallow="tram rail_urban rail rail_electric ship" id="highway.tertiary" numLanes="1" oneway="0" priority="6" speed="22.22" />
    <type disallow="tram rail_urban rail rail_electric ship" id="highway.tertiary_link" numLanes="1" oneway="0" priority="5" speed="22.22" />
    <type disallow="tram rail_urban rail rail_electric ship" id="highway.track" numLanes="1" oneway="0" priority="1" speed="5.56" />
    <type disallow="tram rail_urban rail rail_electric bicycle pedestrian ship" id="highway.trunk" numLanes="2" oneway="0" priority="11" speed="27.78" />
    <type disallow="tram rail_urban rail rail_electric bicycle pedestrian ship" id="highway.trunk_link" numLanes="1" oneway="0" priority="10" speed="22.22" />
    <type disallow="tram rail_urban rail rail_electric ship" id="highway.unclassified" numLanes="1" oneway="0" priority="5" speed="13.89" />
    <type disallow="tram rail_urban rail rail_electric ship" id="highway.unsurfaced" numLanes="1" oneway="0" priority="1" speed="8.33" />
    <type allow="rail_urban" id="railway.light_rail" numLanes="1" oneway="1" priority="15" speed="27.78" />
    <type allow="rail" id="railway.preserved" numLanes="1" oneway="1" priority="15" speed="27.78" />
    <type allow="rail rail_electric" id="railway.rail" numLanes="1" oneway="1" priority="15" speed="83.33" />
    <type allow="rail_urban" id="railway.subway" numLanes="1" oneway="1" priority="15" speed="27.78" />
    <type allow="tram" id="railway.tram" numLanes="1" oneway="1" priority="15" speed="13.89" />

    <edge function="internal" id=":122945997_0">
        <lane disallow="tram rail_urban rail rail_electric ship" id=":122945997_0_0" index="0" length="4.82" shape="499.53,580.03 499.06,578.62 499.24,577.71 500.07,577.31 501.55,577.42" speed="27.78" />
    </edge>
    <edge function="internal" id=":122945999_0">
        <lane disallow="tram rail_urban rail rail_electric ship" id=":122945999_0_0" index="0" length="5.06" shape="699.72,741.37 698.53,740.65 697.40,740.49 696.35,740.91 695.36,741.89" speed="20.84" />
    </edge>
    <edge function="internal" id=":122945999_1">
        <lane disallow="tram rail_urban rail rail_electric ship" id=":122945999_1_0" index="0" length="10.37" shape="699.72,741.37 697.76,739.09 697.00,737.00 696.26,734.93 694.33,732.70" speed="27.78" />
    </edge>
    <edge function="internal" id=":122945999_2">
        <lane disallow="tram rail_urban rail rail_electric ship" id=":122945999_2_0" index="0" length="2.41" shape="701.82,738.82 701.39,737.40 701.60,736.50" speed="27.78" />
    </edge>
    <edge function="internal" id=":122945999_7">
        <lane id=":122945999_7_0" index="0" length="2.41" shape="701.60,736.50 702.44,736.13 703.92,736.28" speed="27.78" />
    </edge>
    <edge function="internal" id=":122945999_3">
        <lane disallow="tram rail_urban rail rail_electric ship" id=":122945999_3_0" index="0" length="10.07" shape="696.40,730.14 698.99,731.57 701.18,731.89 703.39,732.24 706.02,733.73" speed="27.78" />
        <lane disallow="tram rail_urban rail rail_electric ship" id=":122945999_3_1" index="1" length="10.07" shape="696.40,730.14 703.92,736.28" speed="27.78" />
    </edge>
    <edge function="internal" id=":122945999_5">
        <lane disallow="tram rail_urban rail rail_electric ship" id=":122945999_5_0" index="0" length="3.05" shape="696.40,730.14 697.02,731.44 696.71,733.01" speed="20.84" />
    </edge>
    <edge function="internal" id=":122945999_6">
        <lane disallow="tram rail_urban rail rail_electric ship" id=":122945999_6_0" index="0" length="2.74" shape="696.40,730.14 696.85,731.56 696.65,732.46 696.35,732.59" speed="27.78" />
    </edge>
    <edge function="internal" id=":122945999_8">
        <lane id=":122945999_8_0" index="0" length="8.01" shape="696.71,733.01 696.62,733.50 695.18,736.32 692.72,739.91" speed="20.84" />
    </edge>
    <edge function="internal" id=":122945999_9">
        <lane id=":122945999_9_0" index="0" length="2.08" shape="696.35,732.59 695.81,732.84 694.33,732.70" speed="27.78" />
    </edge>
    <edge function="internal" id=":122948507_0">
        <lane disallow="tram rail_urban rail rail_electric ship" id=":122948507_0_0" index="0" length="14.75" shape="796.24,824.57 793.25,821.57 792.34,818.44 791.52,815.19 788.76,811.86" speed="27.78" />
        <lane disallow="tram rail_urban rail rail_electric ship" id=":122948507_0_1" index="1" length="14.75" shape="797.98,821.77 795.07,818.82 794.22,815.72 793.45,812.52 790.77,809.24" speed="27.78" />
        <lane disallow="tram rail_urban rail rail_electric ship" id=":122948507_0_2" index="2" length="14.75" shape="799.72,818.97 796.89,816.07 796.10,813.01 795.39,809.84 792.78,806.62" speed="27.78" />
        <lane disallow="tram rail_urban rail rail_electric ship" id=":122948507_0_3" index="3" length="14.75" shape="801.47,816.17 798.71,813.31 797.98,810.29 797.32,807.17 794.79,804.00" speed="27.78" />
    </edge>
    <edge function="internal" id=":122948507_4">
        <lane disallow="tram rail_urban rail rail_electric ship" id=":122948507_4_0" index="0" length="12.12" shape="801.47,816.17 798.44,813.75 797.30,811.45 798.04,809.25 800.67,807.17" speed="20.84" />
    </edge>
    <edge function="internal" id=":122948507_5">
        <lane allow="bus bicycle" id=":122948507_5_0" index="0" length="4.82" shape="801.47,816.17 800.85,814.81 800.94,813.89 801.72,813.41 803.21,813.36" speed="27.78" />
    </edge>
    <edge function="internal" id=":122948507_6">
        <lane disallow="tram rail_urban rail rail_electric ship" id=":122948507_6_0" index="0" length="14.25" shape="789.04,825.78 789.80,820.37 790.01,816.25 789.67,813.41 788.76,811.86" speed="20.84" />
    </edge>
    <edge function="internal" id=":122948507_7">
        <lane disallow="tram rail_urban rail rail_electric ship" id=":122948507_7_0" index="0" length="16.71" shape="789.04,825.78 790.17,818.83 790.83,813.76 791.03,810.56 790.77,809.24" speed="20.84" />
    </edge>
    <edge function="internal" id=":122948507_8">
        <lane disallow="tram rail_urban rail rail_electric ship" id=":122948507_8_0" index="0" length="24.31" shape="789.04,825.78 790.80,817.87 793.05,811.65 795.80,807.13 799.04,804.30" speed="13.89" />
    </edge>
    <edge function="internal" id=":122948507_9">
        <lane disallow="tram rail_urban rail rail_electric ship" id=":122948507_9_0" index="0" length="21.42" shape="792.29,826.34 793.85,819.15 795.77,813.56 798.04,809.56 800.67,807.17" speed="13.89" />
    </edge>
    <edge function="internal" id=":122948507_10">
        <lane allow="bus bicycle" id=":122948507_10_0" index="0" length="20.29" shape="792.29,826.34 794.13,818.84 796.56,814.17 799.59,812.35 803.21,813.36" speed="20.84" />
    </edge>
    <edge function="internal" id=":122972761_0">
        <lane disallow="tram rail_urban rail rail_electric ship" id=":122972761_0_0" index="0" length="11.52" shape="1370.24,1167.33 1359.70,1162.65" speed="27.78" />
        <lane disallow="tram rail_urban rail rail_electric ship" id=":122972761_0_1" index="1" length="11.52" shape="1371.57,1164.31 1361.04,1159.64" speed="27.78" />
        <lane disallow="tram rail_urban rail rail_electric ship" id=":122972761_0_2" index="2" length="11.52" shape="1372.91,1161.29 1362.37,1156.62" speed="27.78" />
    </edge>
    <edge function="internal" id=":122972761_3">
        <lane allow="bicycle" id=":122972761_3_0" index="0" length="12.98" shape="1372.91,1161.29 1369.67,1159.24 1367.97,1156.89 1366.85,1154.22 1365.37,1151.21" speed="16.67" width="1.00" />
    </edge>
    <edge function="internal" id=":122972761_4">
        <lane allow="bus bicycle" id=":122972761_4_0" index="0" length="2.41" shape="1372.91,1161.29 1372.11,1160.04 1372.06,1159.11" speed="27.78" />
    </edge>
    <edge function="internal" id=":122972761_14">
        <lane id=":122972761_14_0" index="0" length="2.41" shape="1372.06,1159.11 1372.77,1158.53 1374.24,1158.27" speed="27.78" />
    </edge>
    <edge function="internal" id=":122972761_5">
        <lane allow="bus bicycle" id=":122972761_5_0" index="0" length="11.27" shape="1366.30,1150.63 1368.01,1153.34 1369.54,1155.29 1371.44,1156.82 1374.24,1158.27" speed="16.67" />
    </edge>
    <edge function="internal" id=":122972761_6">
        <lane disallow="tram rail_urban rail rail_electric ship" id=":122972761_6_0" index="0" length="7.37" shape="1366.30,1150.63 1368.54,1155.01 1368.63,1157.47" speed="16.67" />
    </edge>
    <edge function="internal" id=":122972761_7">
        <lane allow="bicycle" id=":122972761_7_0" index="0" length="0.20" shape="1366.30,1150.63 1366.30,1150.84" speed="5.56" width="1.00" />
    </edge>
    <edge function="internal" id=":122972761_15">
        <lane id=":122972761_15_0" index="0" length="6.55" shape="1368.63,1157.47 1366.58,1158.00 1362.37,1156.62" speed="16.67" />
    </edge>
    <edge function="internal" id=":122972761_16">
        <lane id=":122972761_16_0" index="0" length="1.40" shape="1366.30,1150.84 1366.29,1151.13 1366.13,1151.39 1365.82,1151.42 1365.37,1151.21" speed="5.56" width="1.00" />
    </edge>
    <edge function="internal" id=":122972761_8">
        <lane allow="bicycle" id=":122972761_8_0" index="0" length="5.67" shape="1363.71,1153.61 1365.44,1154.18 1366.29,1153.97 1366.27,1152.98 1365.37,1151.21" speed="16.67" width="1.00" />
    </edge>
    <edge function="internal" id=":122972761_9">
        <lane allow="bus bicycle" id=":122972761_9_0" index="0" length="11.51" shape="1363.71,1153.61 1374.24,1158.27" speed="27.78" />
    </edge>
    <edge function="internal" id=":122972761_10">
        <lane disallow="tram rail_urban rail rail_electric ship" id=":122972761_10_0" index="0" length="2.41" shape="1363.71,1153.61 1364.51,1154.86 1364.55,1155.78" speed="27.78" />
    </edge>
    <edge function="internal" id=":122972761_17">
        <lane id=":122972761_17_0" index="0" length="2.41" shape="1364.55,1155.78 1363.84,1156.37 1362.37,1156.62" speed="27.78" />
    </edge>
    <edge function="internal" id=":122972761_11">
        <lane disallow="tram rail_urban rail rail_electric ship" id=":122972761_11_0" index="0" length="9.75" shape="1366.17,1168.97 1366.21,1167.48 1365.15,1165.93 1362.97,1164.32 1359.70,1162.65" speed="20.84" />
    </edge>
    <edge function="internal" id=":122972761_12">
        <lane allow="bicycle" id=":122972761_12_0" index="0" length="18.46" shape="1366.17,1168.97 1367.64,1164.14 1368.00,1159.57 1367.24,1155.26 1365.37,1151.21" speed="9.73" width="1.00" />
    </edge>
    <edge function="internal" id=":122972761_13">
        <lane allow="bus bicycle" id=":122972761_13_0" index="0" length="11.73" shape="1366.17,1168.97 1368.52,1163.77 1370.66,1160.25 1372.03,1158.93" speed="20.84" />
    </edge>
    <edge function="internal" id=":122972761_18">
        <lane id=":122972761_18_0" index="0" length="2.42" shape="1372.03,1158.93 1372.56,1158.42 1374.24,1158.27" speed="20.84" />
    </edge>
    <edge function="internal" id=":1242609769_0">
        <lane allow="delivery bicycle pedestrian" id=":1242609769_0_0" index="0" length="9.84" shape="779.92,671.50 775.58,680.33" speed="8.33" />
    </edge>
    <edge function="internal" id=":1242609769_1">
        <lane allow="delivery bicycle pedestrian" id=":1242609769_1_0" index="0" length="10.66" shape="779.92,671.50 778.34,673.99 776.36,675.32 773.99,675.48 771.21,674.48" speed="8.33" />
    </edge>
    <edge function="internal" id=":1242609769_2">
        <lane allow="delivery bicycle pedestrian" id=":1242609769_2_0" index="0" length="4.82" shape="779.92,671.50 778.66,672.29 777.74,672.33 777.15,671.61 776.91,670.15" speed="8.33" />
    </edge>
    <edge function="internal" id=":1242609769_3">
        <lane allow="delivery bicycle pedestrian" id=":1242609769_3_0" index="0" length="5.08" shape="772.76,671.57 774.08,672.04 775.21,671.97 776.16,671.33 776.91,670.15" speed="8.33" />
    </edge>
    <edge function="internal" id=":1242609769_4">
        <lane allow="delivery bicycle pedestrian" id=":1242609769_4_0" index="0" length="10.51" shape="772.76,671.57 775.13,673.28 776.39,675.31 776.54,677.66 775.58,680.33" speed="8.33" />
    </edge>
    <edge function="internal" id=":1242609769_5">
        <lane allow="delivery bicycle pedestrian" id=":1242609769_5_0" index="0" length="4.82" shape="772.76,671.57 773.47,672.88 773.44,673.80 772.69,674.33 771.21,674.48" speed="8.33" />
    </edge>
    <edge function="internal" id=":1242609769_6">
        <lane allow="delivery bicycle pedestrian" id=":1242609769_6_0" index="0" length="5.17" shape="772.67,678.77 773.13,677.48 773.04,676.33 772.40,675.33 771.21,674.48" speed="8.33" />
    </edge>
    <edge function="internal" id=":1242609769_7">
        <lane allow="delivery bicycle pedestrian" id=":1242609769_7_0" index="0" length="9.61" shape="772.67,678.77 776.91,670.15" speed="8.33" />
    </edge>
    <edge function="internal" id=":1242609769_8">
        <lane allow="delivery bicycle pedestrian" id=":1242609769_8_0" index="0" length="4.82" shape="772.67,678.77 773.98,678.07 774.90,678.10 775.43,678.85 775.58,680.33" speed="8.33" />
    </edge>
    <edge function="internal" id=":1242609770_0">
        <lane allow="delivery bicycle pedestrian" id=":1242609770_0_0" index="0" length="4.82" shape="752.72,699.84 752.03,698.52 752.07,697.60 752.83,697.08 754.31,696.95" speed="8.33" />
    </edge>
    <edge function="internal" id=":1242852923_0">
        <lane allow="delivery bicycle pedestrian" id=":1242852923_0_0" index="0" length="4.82" shape="763.85,670.58 763.15,669.27 763.17,668.34 763.92,667.81 765.40,667.66" speed="8.33" />
    </edge>
    <edge function="internal" id=":1242855101_0">
        <lane disallow="tram rail_urban rail rail_electric ship" id=":1242855101_0_0" index="0" length="10.41" shape="803.82,484.11 804.37,494.50" speed="13.89" />
        <lane disallow="tram rail_urban rail rail_electric ship" id=":1242855101_0_1" index="1" length="10.41" shape="800.53,484.28 801.08,494.68" speed="13.89" />
    </edge>
    <edge function="internal" id=":1242855101_2">
        <lane allow="delivery bicycle pedestrian" id=":1242855101_2_0" index="0" length="9.68" shape="800.53,484.28 800.37,487.60 799.49,489.59 797.88,490.27 795.54,489.63" speed="9.73" />
    </edge>
    <edge function="internal" id=":1242855101_3">
        <lane disallow="tram rail_urban rail rail_electric ship" id=":1242855101_3_0" index="0" length="9.45" shape="796.96,486.66 798.64,487.84 799.88,489.57 800.70,491.85 801.08,494.68" speed="9.73" />
    </edge>
    <edge function="internal" id=":1242855101_4">
        <lane allow="delivery bicycle pedestrian" id=":1242855101_4_0" index="0" length="4.82" shape="796.96,486.66 797.72,487.94 797.74,488.86 797.01,489.42 795.54,489.63" speed="5.56" />
    </edge>
    <edge function="internal" id=":1242855123_0">
        <lane allow="delivery bicycle pedestrian" id=":1242855123_0_0" index="0" length="4.82" shape="524.01,364.10 523.21,362.84 523.17,361.92 523.88,361.33 525.35,361.08" speed="5.56" />
    </edge>
    <edge function="internal" id=":1242855139_0">
        <lane allow="delivery bicycle pedestrian" id=":1242855139_0_0" index="0" length="4.82" shape="587.81,305.08 588.60,306.34 588.64,307.27 587.92,307.85 586.45,308.09" speed="5.56" />
    </edge>
    <edge function="internal" id=":1242907048_0">
        <lane allow="delivery bicycle pedestrian" id=":1242907048_0_0" index="0" length="11.26" shape="733.44,439.12 730.52,438.50 728.22,439.12 725.86,440.29 722.77,441.34" speed="5.56" />
    </edge>
    <edge function="internal" id=":1242907048_1">
        <lane allow="delivery bicycle pedestrian" id=":1242907048_1_0" index="0" length="12.63" shape="733.44,439.12 721.82,434.16" speed="5.56" />
    </edge>
    <edge function="internal" id=":1242907048_2">
        <lane allow="delivery bicycle pedestrian" id=":1242907048_2_0" index="0" length="4.82" shape="733.44,439.12 732.62,437.87 732.57,436.95 733.27,436.36 734.73,436.08" speed="5.56" />
    </edge>
    <edge function="internal" id=":1242907048_3">
        <lane allow="delivery bicycle pedestrian" id=":1242907048_3_0" index="0" length="12.63" shape="723.11,431.12 734.73,436.08" speed="5.56" />
    </edge>
    <edge function="internal" id=":1242907048_4">
        <lane allow="delivery bicycle pedestrian" id=":1242907048_4_0" index="0" length="19.79" shape="723.11,431.12 729.11,434.33 731.06,437.10 728.94,439.44 722.77,441.34" speed="5.56" />
    </edge>
    <edge function="internal" id=":1242907048_5">
        <lane allow="delivery bicycle pedestrian" id=":1242907048_5_0" index="0" length="4.82" shape="723.11,431.12 723.93,432.37 723.98,433.29 723.28,433.89 721.82,434.16" speed="5.56" />
    </edge>
    <edge function="internal" id=":1242907048_6">
        <lane allow="delivery bicycle pedestrian" id=":1242907048_6_0" index="0" length="7.84" shape="721.68,438.20 724.12,437.45 724.96,436.53 724.19,435.43 721.82,434.16" speed="5.56" />
    </edge>
    <edge function="internal" id=":1242907048_7">
        <lane allow="delivery bicycle pedestrian" id=":1242907048_7_0" index="0" length="13.52" shape="721.68,438.20 725.14,437.17 728.32,436.03 731.44,435.45 734.73,436.08" speed="5.56" />
    </edge>
    <edge function="internal" id=":1242907048_8">
        <lane allow="delivery bicycle pedestrian" id=":1242907048_8_0" index="0" length="4.85" shape="721.68,438.20 723.13,438.57 723.79,439.22 723.68,440.14 722.77,441.34" speed="5.56" />
    </edge>
    <edge function="internal" id=":1244651570_0">
        <lane disallow="tram rail_urban rail rail_electric ship" id=":1244651570_0_0" index="0" length="6.38" shape="1064.20,577.96 1063.53,576.88 1062.41,576.09 1060.82,575.58 1058.76,575.36" speed="9.72" />
    </edge>
    <edge function="internal" id=":1244651570_1">
        <lane disallow="tram rail_urban rail rail_electric ship" id=":1244651570_1_0" index="0" length="9.58" shape="1064.20,577.96 1063.27,575.28 1062.71,573.41 1062.27,571.51 1061.70,568.73" speed="13.89" />
    </edge>
    <edge function="internal" id=":1244651570_2">
        <lane disallow="tram rail_urban rail rail_electric ship" id=":1244651570_2_0" index="0" length="5.31" shape="1058.88,572.06 1060.38,571.90 1061.35,571.29 1061.79,570.23 1061.70,568.73" speed="9.72" />
    </edge>
    <edge function="internal" id=":1244651570_3">
        <lane disallow="tram rail_urban rail rail_electric ship" id=":1244651570_3_0" index="0" length="4.82" shape="1058.88,572.06 1060.09,572.93 1060.47,573.77 1060.03,574.58 1058.76,575.36" speed="5.56" />
    </edge>
    <edge function="internal" id=":1244681486_0">
        <lane disallow="tram rail_urban rail rail_electric ship" id=":1244681486_0_0" index="0" length="7.11" shape="799.96,569.32 801.88,570.81 803.04,572.01 804.01,573.40 805.37,575.43" speed="19.45" />
        <lane disallow="tram rail_urban rail rail_electric ship" id=":1244681486_0_1" index="1" length="7.11" shape="798.03,572.00 799.68,573.29 800.66,574.34 801.49,575.55 802.65,577.31" speed="19.45" />
        <lane disallow="tram rail_urban rail rail_electric ship" id=":1244681486_0_2" index="2" length="7.11" shape="796.10,574.67 797.48,575.77 798.29,576.67 798.97,577.70 799.94,579.19" speed="19.45" />
    </edge>
    <edge function="internal" id=":1244681486_3">
        <lane disallow="tram rail_urban rail rail_electric ship" id=":1244681486_3_0" index="0" length="10.53" shape="802.78,565.41 810.80,571.68" speed="20.84" />
        <lane disallow="tram rail_urban rail rail_electric ship" id=":1244681486_3_1" index="1" length="10.53" shape="803.78,564.04 803.79,567.11 804.60,569.13 806.08,570.99 808.08,573.56" speed="20.84" />
    </edge>
    <edge function="internal" id=":1270726671_0">
        <lane disallow="tram rail_urban rail rail_electric ship" id=":1270726671_0_0" index="0" length="5.24" shape="1145.30,1062.45 1143.96,1061.82 1142.81,1061.83 1141.87,1062.48 1141.12,1063.75" speed="27.78" />
    </edge>
    <edge function="internal" id=":1270726671_1">
        <lane disallow="tram rail_urban rail rail_electric ship" id=":1270726671_1_0" index="0" length="13.63" shape="1145.30,1062.45 1142.13,1059.90 1140.44,1057.62 1138.93,1055.12 1136.27,1051.94" speed="27.78" />
        <lane disallow="tram rail_urban rail rail_electric ship" id=":1270726671_1_1" index="1" length="13.63" shape="1147.10,1059.68 1144.10,1057.25 1142.53,1055.05 1141.12,1052.65 1138.61,1049.61" speed="27.78" />
    </edge>
    <edge function="internal" id=":1270726671_3">
        <lane allow="bus bicycle" id=":1270726671_3_0" index="0" length="2.41" shape="1148.90,1056.91 1148.31,1055.55 1148.41,1054.63" speed="27.78" />
    </edge>
    <edge function="internal" id=":1270726671_10">
        <lane id=":1270726671_10_0" index="0" length="2.41" shape="1148.41,1054.63 1149.21,1054.17 1150.70,1054.15" speed="27.78" />
    </edge>
    <edge function="internal" id=":1270726671_4">
        <lane allow="bus bicycle" id=":1270726671_4_0" index="0" length="11.96" shape="1140.95,1047.28 1143.37,1049.46 1145.58,1051.02 1147.90,1052.42 1150.70,1054.15" speed="27.78" />
    </edge>
    <edge function="internal" id=":1270726671_5">
        <lane disallow="tram rail_urban rail rail_electric ship" id=":1270726671_5_0" index="0" length="3.50" shape="1140.95,1047.28 1141.66,1049.12 1141.54,1050.64" speed="27.78" />
    </edge>
    <edge function="internal" id=":1270726671_6">
        <lane disallow="tram rail_urban rail rail_electric ship" id=":1270726671_6_0" index="0" length="2.62" shape="1140.95,1047.28 1141.24,1048.74 1140.95,1049.61 1140.75,1049.68" speed="27.78" />
    </edge>
    <edge function="internal" id=":1270726671_11">
        <lane id=":1270726671_11_0" index="0" length="12.41" shape="1141.54,1050.64 1141.41,1052.27 1140.22,1056.73 1138.06,1062.49" speed="27.78" />
    </edge>
    <edge function="internal" id=":1270726671_12">
        <lane id=":1270726671_12_0" index="0" length="2.20" shape="1140.75,1049.68 1140.07,1049.90 1138.61,1049.61" speed="27.78" />
    </edge>
    <edge function="internal" id=":1270726671_7">
        <lane disallow="tram rail_urban rail rail_electric ship" id=":1270726671_7_0" index="0" length="9.72" shape="1135.01,1061.24 1136.24,1057.85 1136.86,1055.17 1136.87,1053.20 1136.27,1051.94" speed="27.78" />
    </edge>
    <edge function="internal" id=":1270726671_8">
        <lane allow="bus bicycle" id=":1270726671_8_0" index="0" length="20.51" shape="1135.01,1061.24 1138.09,1055.67 1141.73,1052.64 1145.93,1052.13 1150.70,1054.15" speed="27.78" />
    </edge>
    <edge function="internal" id=":1270726671_9">
        <lane disallow="tram rail_urban rail rail_electric ship" id=":1270726671_9_0" index="0" length="4.82" shape="1135.01,1061.24 1136.25,1060.41 1137.17,1060.34 1137.77,1061.04 1138.06,1062.49" speed="27.78" />
    </edge>
    <edge function="internal" id=":1270726673_0">
        <lane disallow="tram rail_urban rail rail_electric ship" id=":1270726673_0_0" index="0" length="13.03" shape="1127.17,1042.81 1124.19,1040.57 1121.65,1039.74 1119.03,1038.99 1115.84,1036.99" speed="27.78" />
        <lane disallow="tram rail_urban rail rail_electric ship" id=":1270726673_0_1" index="1" length="13.03" shape="1129.51,1040.48 1126.46,1038.18 1123.88,1037.31 1121.22,1036.52 1117.96,1034.46" speed="27.78" />
    </edge>
    <edge function="internal" id=":1270726673_2">
        <lane allow="bus bicycle" id=":1270726673_2_0" index="0" length="2.41" shape="1129.51,1040.48 1129.22,1039.02 1129.51,1038.15" speed="27.78" />
    </edge>
    <edge function="internal" id=":1270726673_8">
        <lane id=":1270726673_8_0" index="0" length="2.41" shape="1129.51,1038.15 1130.39,1037.85 1131.84,1038.15" speed="27.78" />
    </edge>
    <edge function="internal" id=":1270726673_3">
        <lane allow="bus bicycle" id=":1270726673_3_0" index="0" length="5.20" shape="1131.45,1033.33 1130.92,1034.73 1130.81,1036.00 1131.12,1037.14 1131.84,1038.15" speed="27.78" />
    </edge>
    <edge function="internal" id=":1270726673_4">
        <lane disallow="tram rail_urban rail rail_electric ship" id=":1270726673_4_0" index="0" length="13.17" shape="1128.50,1031.85 1126.32,1035.03 1123.84,1036.53 1121.05,1036.34 1117.96,1034.46" speed="27.78" />
    </edge>
    <edge function="internal" id=":1270726673_5">
        <lane disallow="tram rail_urban rail rail_electric ship" id=":1270726673_5_0" index="0" length="6.90" shape="1125.55,1030.36 1124.39,1032.08 1123.09,1032.92 1121.66,1032.87 1120.08,1031.93" speed="27.78" />
    </edge>
    <edge function="internal" id=":1270726673_6">
        <lane allow="bus bicycle" id=":1270726673_6_0" index="0" length="13.02" shape="1122.20,1029.40 1124.83,1031.63 1127.13,1033.65 1129.39,1035.74 1131.84,1038.15" speed="27.78" />
    </edge>
    <edge function="internal" id=":1270726673_7">
        <lane disallow="tram rail_urban rail rail_electric ship" id=":1270726673_7_0" index="0" length="2.41" shape="1122.20,1029.40 1122.62,1030.83 1122.40,1031.73" speed="27.78" />
    </edge>
    <edge function="internal" id=":1270726673_9">
        <lane id=":1270726673_9_0" index="0" length="2.41" shape="1122.40,1031.73 1121.56,1032.10 1120.08,1031.93" speed="27.78" />
    </edge>
    <edge function="internal" id=":1270727185_0">
        <lane disallow="tram rail_urban rail rail_electric ship" id=":1270727185_0_0" index="0" length="8.71" shape="1155.49,984.28 1151.76,992.11" speed="27.78" />
        <lane disallow="tram rail_urban rail rail_electric ship" id=":1270727185_0_1" index="1" length="8.71" shape="1152.54,982.82 1148.78,990.67" speed="27.78" />
        <lane disallow="tram rail_urban rail rail_electric ship" id=":1270727185_0_2" index="2" length="8.71" shape="1149.58,981.35 1145.81,989.24" speed="27.78" />
    </edge>
    <edge function="internal" id=":1270727185_3">
        <lane allow="delivery bicycle pedestrian" id=":1270727185_3_0" index="0" length="8.72" shape="1149.58,981.35 1148.26,983.47 1146.90,984.58 1145.22,985.39 1142.91,986.59" speed="16.67" />
    </edge>
    <edge function="internal" id=":1284968536_0">
        <lane disallow="tram rail_urban rail rail_electric ship" id=":1284968536_0_0" index="0" length="5.99" shape="1948.34,647.25 1945.65,652.60" speed="13.89" />
    </edge>
    <edge function="internal" id=":1284968536_1">
        <lane disallow="tram rail_urban rail rail_electric ship" id=":1284968536_1_0" index="0" length="2.90" shape="1948.34,647.25 1947.38,648.21 1945.87,648.50" speed="13.89" />
    </edge>
    <edge function="internal" id=":1284968536_2">
        <lane disallow="tram rail_urban rail rail_electric ship" id=":1284968536_2_0" index="0" length="2.41" shape="1948.34,647.25 1947.03,647.96 1946.11,647.93" speed="13.89" />
    </edge>