<net xmlns:xsi="http://www.w3.org/2001/XMLSchema-instance" junctionCornerDetail="5" version="0.27" xsi:noNamespaceSchemaLocation="http://sumo.dlr.de/xsd/net_file.xsd">

    <location convBoundary="0.00,0.00,1696.17,926.85" netOffset="-697737.89,-5182712.48" origBoundary="23.589835,46.768648,23.612430,46.776475" projParameter="+proj=utm +zone=34 +ellps=WGS84 +datum=WGS84 +units=m +no_defs" />

    <type allow="pedestrian" id="highway.bridleway" numLanes="1" oneway="1" priority="1" speed="2.78" width="2.00" />
    <type allow="bus" id="highway.bus_guideway" numLanes="1" oneway="1" priority="1" speed="8.33" />
    <type allow="bicycle" id="highway.cycleway" numLanes="1" oneway="0" priority="1" speed="5.56" width="1.00" />
    <type allow="pedestrian" id="highway.footway" numLanes="1" oneway="1" priority="1" speed="2.78" width="2.00" />
    <type allow="army" id="highway.ford" numLanes="1" oneway="0" priority="1" speed="2.78" />
    <type disallow="tram rail_urban rail rail_electric ship" id="highway.living_street" numLanes="1" oneway="0" priority="3" speed="2.78" />
    <type allow="private emergency authority army vip passenger hov taxi bus coach delivery truck trailer motorcycle evehicle custom1 custom2" id="highway.motorway" numLanes="2" oneway="1" priority="13" speed="44.44" />
    <type allow="private emergency authority army vip passenger hov taxi bus coach delivery truck trailer motorcycle evehicle custom1 custom2" id="highway.motorway_link" numLanes="1" oneway="1" priority="12" speed="22.22" />
    <type allow="bicycle pedestrian" id="highway.path" numLanes="1" oneway="1" priority="1" speed="2.78" width="2.00" />
    <type allow="pedestrian" id="highway.pedestrian" numLanes="1" oneway="1" priority="1" speed="2.78" width="2.00" />
    <type disallow="tram rail_urban rail rail_electric ship" id="highway.primary" numLanes="2" oneway="0" priority="9" speed="27.78" />
    <type disallow="tram rail_urban rail rail_electric ship" id="highway.primary_link" numLanes="1" oneway="0" priority="8" speed="22.22" />
    <type allow="vip" id="highway.raceway" numLanes="2" oneway="0" priority="14" speed="83.33" />
    <type disallow="tram rail_urban rail rail_electric ship" id="highway.residential" numLanes="1" oneway="0" priority="4" speed="13.89" />
    <type disallow="tram rail_urban rail rail_electric ship" id="highway.secondary" numLanes="2" oneway="0" priority="7" speed="27.78" />
    <type disallow="tram rail_urban rail rail_electric ship" id="highway.secondary_link" numLanes="1" oneway="0" priority="6" speed="22.22" />
    <type allow="delivery bicycle pedestrian" id="highway.service" numLanes="1" oneway="0" priority="2" speed="5.56" />
    <type disallow="tram rail_urban rail rail_electric ship" id="highway.services" numLanes="1" oneway="0" priority="1" speed="8.33" />
    <type allow="pedestrian" id="highway.stairs" numLanes="1" oneway="1" priority="1" speed="1.39" width="2.00" />
    <type allow="pedestrian" id="highway.step" numLanes="1" oneway="1" priority="1" speed="1.39" width="2.00" />
    <type allow="pedestrian" id="highway.steps" numLanes="1" oneway="1" priority="1" speed="1.39" width="2.00" />
    <type disallow="tram rail_urban rail rail_electric ship" id="highway.tertiary" numLanes="1" oneway="0" priority="6" speed="22.22" />
    <type disallow="tram rail_urban rail rail_electric ship" id="highway.tertiary_link" numLanes="1" oneway="0" priority="5" speed="22.22" />
    <type disallow="tram rail_urban rail rail_electric ship" id="highway.track" numLanes="1" oneway="0" priority="1" speed="5.56" />
    <type disallow="tram rail_urban rail rail_electric bicycle pedestrian ship" id="highway.trunk" numLanes="2" oneway="0" priority="11" speed="27.78" />
    <type disallow="tram rail_urban rail rail_electric bicycle pedestrian ship" id="highway.trunk_link" numLanes="1" oneway="0" priority="10" speed="22.22" />
    <type disallow="tram rail_urban rail rail_electric ship" id="highway.unclassified" numLanes="1" oneway="0" priority="5" speed="13.89" />
    <type disallow="tram rail_urban rail rail_electric ship" id="highway.unsurfaced" numLanes="1" oneway="0" priority="1" speed="8.33" />
    <type allow="rail_urban" id="railway.light_rail" numLanes="1" oneway="1" priority="15" speed="27.78" />
    <type allow="rail" id="railway.preserved" numLanes="1" oneway="1" priority="15" speed="27.78" />
    <type allow="rail rail_electric" id="railway.rail" numLanes="1" oneway="1" priority="15" speed="83.33" />
    <type allow="rail_urban" id="railway.subway" numLanes="1" oneway="1" priority="15" speed="27.78" />
    <type allow="tram" id="railway.tram" numLanes="1" oneway="1" priority="15" speed="13.89" />

    <edge function="internal" id=":122972761_0">
        <lane allow="bus bicycle" id=":122972761_0_0" index="0" length="4.82" shape="233.91,372.10 233.11,370.84 233.07,369.92 233.78,369.33 235.24,369.08" speed="27.78" />
    </edge>
    <edge function="internal" id=":1883241270_0">
        <lane disallow="tram rail_urban rail rail_electric ship" id=":1883241270_0_0" index="0" length="4.43" shape="456.91,224.82 455.09,228.86" speed="13.89" />
    </edge>
    <edge function="internal" id=":2505063282_0">
        <lane disallow="tram rail_urban rail rail_electric ship" id=":2505063282_0_0" index="0" length="2.62" shape="484.61,498.65 487.18,499.15" speed="20.84" />
    </edge>
    <edge function="internal" id=":2505063282_1">
        <lane disallow="tram rail_urban rail rail_electric ship" id=":2505063282_1_0" index="0" length="4.31" shape="484.61,498.65 480.28,500.28" speed="27.78" />
        <lane disallow="tram rail_urban rail rail_electric ship" id=":2505063282_1_1" index="1" length="4.31" shape="486.06,495.68 481.77,497.34" speed="27.78" />
        <lane disallow="tram rail_urban rail rail_electric ship" id=":2505063282_1_2" index="2" length="4.31" shape="487.52,492.72 483.27,494.40" speed="27.78" />
        <lane disallow="tram rail_urban rail rail_electric ship" id=":2505063282_1_3" index="3" length="4.31" shape="488.97,489.76 484.77,491.45" speed="27.78" />
        <lane disallow="tram rail_urban rail rail_electric ship" id=":2505063282_1_4" index="4" length="4.31" shape="490.42,486.80 486.27,488.51" speed="27.78" />
        <lane disallow="tram rail_urban rail rail_electric ship" id=":2505063282_1_5" index="5" length="4.31" shape="491.88,483.84 487.76,485.57" speed="27.78" />
        <lane disallow="tram rail_urban rail rail_electric ship" id=":2505063282_1_6" index="6" length="4.31" shape="491.88,483.84 489.26,482.63" speed="27.78" />
    </edge>
    <edge function="internal" id=":2505063282_8">
        <lane disallow="tram rail_urban rail rail_electric ship" id=":2505063282_8_0" index="0" length="19.34" shape="490.05,480.52 487.76,485.98 486.52,490.91 486.33,495.30 487.18,499.15" speed="20.84" />
    </edge>
    <edge function="internal" id=":2505063282_9">
        <lane disallow="tram rail_urban rail rail_electric ship" id=":2505063282_9_0" index="0" length="22.10" shape="487.09,479.07 484.56,485.18 483.22,490.77 483.07,495.84 484.12,500.38" speed="20.84" />
    </edge>
    <edge function="internal" id=":2505063282_10">
        <lane disallow="tram rail_urban rail rail_electric ship" id=":2505063282_10_0" index="0" length="12.57" shape="484.13,477.61 482.82,481.24 482.73,484.26 483.88,486.69 486.27,488.51" speed="27.78" />
    </edge>
    <edge function="internal" id=":2505063282_11">
        <lane disallow="tram rail_urban rail rail_electric ship" id=":2505063282_11_0" index="0" length="12.75" shape="481.17,476.16 480.69,478.56 481.62,480.93 483.98,483.27 487.76,485.57" speed="27.78" />
    </edge>
    <edge function="internal" id=":2505063282_12">
        <lane disallow="tram rail_urban rail rail_electric ship" id=":2505063282_12_0" index="0" length="10.76" shape="481.17,476.16 481.33,477.27 482.73,478.72 485.37,480.51 489.26,482.63" speed="27.78" />
    </edge>
    <edge function="internal" id=":2505063282_13">
        <lane disallow="tram rail_urban rail rail_electric ship" id=":2505063282_13_0" index="0" length="10.22" shape="481.17,476.16 490.76,479.69" speed="27.78" />
    </edge>
    <edge function="internal" id=":2508339514_0">
        <lane disallow="tram rail_urban rail rail_electric ship" id=":2508339514_0_0" index="0" length="2.67" shape="489.59,477.61 490.14,480.34" speed="27.78" />
        <lane disallow="tram rail_urban rail rail_electric ship" id=":2508339514_0_1" index="1" length="2.67" shape="486.59,476.24 487.18,478.89" speed="27.78" />
        <lane disallow="tram rail_urban rail rail_electric ship" id=":2508339514_0_2" index="2" length="2.67" shape="483.58,474.88 484.22,477.43" speed="27.78" />
        <lane disallow="tram rail_urban rail rail_electric ship" id=":2508339514_0_3" index="3" length="2.67" shape="480.57,473.52 481.25,475.98" speed="27.78" />
    </edge>
    <edge function="internal" id=":2570050761_0">
        <lane disallow="tram rail_urban rail rail_electric ship" id=":2570050761_0_0" index="0" length="3.01" shape="431.56,397.19 432.90,394.50" speed="27.78" />
        <lane disallow="tram rail_urban rail rail_electric ship" id=":2570050761_0_1" index="1" length="3.01" shape="434.51,398.67 435.86,395.98" speed="27.78" />
        <lane disallow="tram rail_urban rail rail_electric ship" id=":2570050761_0_2" index="2" length="3.01" shape="437.46,400.14 438.81,397.45" speed="27.78" />
    </edge>
    <edge function="internal" id=":258986043_0">
        <lane disallow="tram rail_urban rail rail_electric ship" id=":258986043_0_0" index="0" length="5.35" shape="459.05,334.45 460.60,334.67 461.86,334.44 462.84,333.77 463.54,332.66" speed="20.84" />
    </edge>
    <edge function="internal" id=":258986043_1">
        <lane disallow="tram rail_urban rail rail_electric ship" id=":258986043_1_0" index="0" length="6.60" shape="460.86,338.44 463.54,332.66" speed="27.78" />
        <lane disallow="tram rail_urban rail rail_electric ship" id=":258986043_1_1" index="1" length="6.60" shape="463.80,339.94 466.58,333.95" speed="27.78" />
        <lane disallow="tram rail_urban rail rail_electric ship" id=":258986043_1_2" index="2" length="6.60" shape="466.74,341.43 469.62,335.23" speed="27.78" />
    </edge>
    <edge function="internal" id=":2731559598_0">
        <lane disallow="tram rail_urban rail rail_electric ship" id=":2731559598_0_0" index="0" length="3.71" shape="462.33,213.61 463.90,210.25" speed="13.89" />
    </edge>
    <edge function="internal" id=":2731559606_0">
        <lane disallow="tram rail_urban rail rail_electric ship" id=":2731559606_0_0" index="0" length="5.00" shape="502.33,234.50 504.37,229.93" speed="27.78" />
        <lane disallow="tram rail_urban rail rail_electric ship" id=":2731559606_0_1" index="1" length="5.00" shape="505.35,235.84 507.38,231.28" speed="27.78" />
        <lane disallow="tram rail_urban rail rail_electric ship" id=":2731559606_0_2" index="2" length="5.00" shape="508.36,237.19 510.40,232.62" speed="27.78" />
    </edge>
    <edge function="internal" id=":2731559639_0">
        <lane disallow="tram rail_urban rail rail_electric ship" id=":2731559639_0_0" index="0" length="4.16" shape="720.10,331.88 718.78,331.54 717.74,331.58 716.99,331.98 716.52,332.76" speed="9.73" />
    </edge>
    <edge function="internal" id=":2731559639_1">
        <lane allow="bicycle" id=":2731559639_1_0" index="0" length="6.21" shape="720.10,331.88 714.23,329.86" speed="5.56" width="1.00" />
    </edge>
    <edge function="internal" id=":2731559639_2">
        <lane allow="bicycle" id=":2731559639_2_0" index="0" length="1.61" shape="720.10,331.88 719.80,331.48 719.76,331.17 719.99,330.96 720.47,330.84" speed="5.56" width="1.00" />
    </edge>
    <edge function="internal" id=":2731559639_3">
        <lane allow="bicycle" id=":2731559639_3_0" index="0" length="4.19" shape="718.15,327.90 718.06,328.79 718.41,329.58 719.22,330.26 720.47,330.84" speed="9.73" width="1.00" />
    </edge>
    <edge function="internal" id=":2731559639_4">
        <lane disallow="tram rail_urban rail rail_electric ship" id=":2731559639_4_0" index="0" length="5.12" shape="718.15,327.90 716.52,332.76" speed="13.89" />
    </edge>
    <edge function="internal" id=":2731559639_5">
        <lane allow="bicycle" id=":2731559639_5_0" index="0" length="5.00" shape="718.15,327.90 717.54,329.12 716.68,329.86 715.58,330.11 714.23,329.86" speed="9.73" width="1.00" />
    </edge>
    <edge function="internal" id=":2731559639_6">
        <lane allow="bicycle" id=":2731559639_6_0" index="0" length="6.23" shape="714.57,328.82 720.47,330.84" speed="5.56" width="1.00" />
    </edge>
    <edge function="internal" id=":2731559639_7">
        <lane disallow="tram rail_urban rail rail_electric ship" id=":2731559639_7_0" index="0" length="5.02" shape="714.57,328.82 715.80,329.43 716.53,330.29 716.78,331.40 716.52,332.76" speed="9.73" />
    </edge>
    <edge function="internal" id=":2731559639_8">
        <lane allow="bicycle" id=":2731559639_8_0" index="0" length="1.61" shape="714.57,328.82 714.88,329.21 714.92,329.51 714.70,329.73 714.23,329.86" speed="5.56" width="1.00" />
    </edge>
    <edge function="internal" id=":2731559717_0">
        <lane allow="bicycle" id=":2731559717_0_0" index="0" length="1.61" shape="1696.44,926.37 1696.66,926.81 1696.65,927.12 1696.39,927.29 1695.90,927.33" speed="5.56" width="1.00" />
    </edge>
    <edge function="internal" id=":2731559723_0">
        <lane disallow="tram rail_urban rail rail_electric ship" id=":2731559723_0_0" index="0" length="6.17" shape="410.97,461.39 409.56,460.89 408.19,460.98 406.86,461.66 405.56,462.93" speed="16.67" />
    </edge>
    <edge function="internal" id=":2731559723_1">
        <lane allow="bicycle" id=":2731559723_1_0" index="0" length="16.52" shape="410.97,461.39 396.56,453.30" speed="5.56" width="1.00" />
    </edge>
    <edge function="internal" id=":2731559723_2">
        <lane disallow="tram rail_urban rail rail_electric ship" id=":2731559723_2_0" index="0" length="11.30" shape="410.97,461.39 407.33,459.08 405.04,456.97 404.12,455.06 404.55,453.36" speed="16.67" />
    </edge>
    <edge function="internal" id=":2731559723_3">
        <lane allow="bicycle" id=":2731559723_3_0" index="0" length="1.61" shape="410.97,461.39 410.74,460.95 410.75,460.64 411.01,460.47 411.50,460.43" speed="5.56" width="1.00" />
    </edge>
    <edge function="internal" id=":2731559723_4">
        <lane allow="bicycle" id=":2731559723_4_0" index="0" length="4.20" shape="409.98,457.12 409.61,457.99 409.74,458.83 410.37,459.64 411.50,460.43" speed="16.67" width="1.00" />
    </edge>
    <edge function="internal" id=":2731559723_5">
        <lane disallow="tram rail_urban rail rail_electric ship" id=":2731559723_5_0" index="0" length="7.17" shape="409.98,457.12 405.56,462.93" speed="27.78" />
        <lane disallow="tram rail_urban rail rail_electric ship" id=":2731559723_5_1" index="1" length="7.17" shape="407.26,455.24 403.01,460.84" speed="27.78" />
    </edge>
    <edge function="internal" id=":2731559723_7">
        <lane allow="bicycle" id=":2731559723_7_0" index="0" length="3.19" shape="407.26,455.24 405.83,456.22 404.38,456.23" speed="16.67" width="1.00" />
    </edge>
    <edge function="internal" id=":2731559723_8">
        <lane disallow="tram rail_urban rail rail_electric ship" id=":2731559723_8_0" index="0" length="2.54" shape="407.26,455.24 405.88,455.78 404.97,455.65 404.90,455.54" speed="27.78" />
    </edge>
    <edge function="internal" id=":2731559723_18">
        <lane id=":2731559723_18_0" index="0" length="8.43" shape="404.38,456.23 403.57,456.23 400.48,455.26 396.56,453.30" speed="16.67" width="1.00" />
    </edge>
    <edge function="internal" id=":2731559723_19">
        <lane id=":2731559723_19_0" index="0" length="2.28" shape="404.90,455.54 404.52,454.85 404.55,453.36" speed="27.78" />
    </edge>
    <edge function="internal" id=":2731559723_9">
        <lane disallow="tram rail_urban rail rail_electric ship" id=":2731559723_9_0" index="0" length="5.38" shape="397.10,452.35 398.51,452.92 399.77,452.97 400.88,452.49 401.84,451.48" speed="16.67" />
    </edge>
    <edge function="internal" id=":2731559723_10">
        <lane allow="bicycle" id=":2731559723_10_0" index="0" length="16.51" shape="397.10,452.35 411.50,460.43" speed="5.56" width="1.00" />
    </edge>
    <edge function="internal" id=":2731559723_11">
        <lane disallow="tram rail_urban rail rail_electric ship" id=":2731559723_11_0" index="0" length="11.66" shape="397.10,452.35 400.77,454.74 402.98,456.95 403.73,458.98 403.01,460.84" speed="16.67" />
    </edge>
    <edge function="internal" id=":2731559723_12">
        <lane allow="bicycle" id=":2731559723_12_0" index="0" length="1.61" shape="397.10,452.35 397.32,452.79 397.31,453.10 397.05,453.27 396.56,453.30" speed="5.56" width="1.00" />
    </edge>
    <edge function="internal" id=":2731559723_13">
        <lane allow="bicycle" id=":2731559723_13_0" index="0" length="4.25" shape="397.91,456.65 398.37,455.78 398.30,454.93 397.69,454.11 396.56,453.30" speed="16.67" width="1.00" />
    </edge>
    <edge function="internal" id=":2731559723_14">
        <lane disallow="tram rail_urban rail rail_electric ship" id=":2731559723_14_0" index="0" length="6.63" shape="397.91,456.65 401.84,451.48" speed="27.78" />
        <lane disallow="tram rail_urban rail rail_electric ship" id=":2731559723_14_1" index="1" length="6.63" shape="400.46,458.74 404.55,453.36" speed="27.78" />
    </edge>
    <edge function="internal" id=":2731559723_16">
        <lane allow="bicycle" id=":2731559723_16_0" index="0" length="3.26" shape="400.46,458.74 402.09,457.70 403.41,457.66" speed="16.67" width="1.00" />
    </edge>
    <edge function="internal" id=":2731559723_17">
        <lane disallow="tram rail_urban rail rail_electric ship" id=":2731559723_17_0" index="0" length="2.41" shape="400.46,458.74 401.88,458.31 402.78,458.52" speed="27.78" />
    </edge>
    <edge function="internal" id=":2731559723_20">
        <lane id=":2731559723_20_0" index="0" length="8.65" shape="403.41,457.66 404.48,457.63 407.62,458.54 411.50,460.43" speed="16.67" width="1.00" />
    </edge>
    <edge function="internal" id=":2731559723_21">
        <lane id=":2731559723_21_0" index="0" length="2.41" shape="402.78,458.52 403.16,459.36 403.01,460.84" speed="27.78" />
    </edge>
    <edge function="internal" id=":2731559738_0">
        <lane disallow="tram rail_urban rail rail_electric ship" id=":2731559738_0_0" index="0" length="7.05" shape="241.33,375.22 236.75,380.57" speed="16.67" />
    </edge>
    <edge function="internal" id=":2731559738_1">
        <lane allow="bus bicycle" id=":2731559738_1_0" index="0" length="4.94" shape="241.33,375.22 241.05,373.59 241.31,372.62 242.13,372.34 243.49,372.73" speed="16.67" />
    </edge>
    <edge function="internal" id=":2731559738_2">
        <lane allow="bicycle" id=":2731559738_2_0" index="0" length="1.61" shape="241.33,375.22 241.49,374.75 241.71,374.54 242.02,374.60 242.39,374.92" speed="5.56" width="1.00" />
    </edge>
    <edge function="internal" id=":2731559738_3">
        <lane allow="bicycle" id=":2731559738_3_0" index="0" length="7.45" shape="239.49,381.78 242.39,374.92" speed="16.67" width="1.00" />
    </edge>
    <edge function="internal" id=":2731559738_4">
        <lane disallow="tram rail_urban rail rail_electric ship" id=":2731559738_4_0" index="0" length="3.00" shape="239.49,381.78 236.75,380.57" speed="27.78" />
        <lane disallow="tram rail_urban rail rail_electric ship" id=":2731559738_4_1" index="1" length="3.00" shape="240.82,378.76 238.08,377.55" speed="27.78" />
        <lane disallow="tram rail_urban rail rail_electric ship" id=":2731559738_4_2" index="2" length="3.00" shape="242.16,375.74 239.41,374.53" speed="27.78" />
    </edge>
    <edge function="internal" id=":2731559738_7">
        <lane allow="bus bicycle" id=":2731559738_7_0" index="0" length="2.41" shape="242.16,375.74 241.36,374.49 241.32,373.57" speed="27.78" />
    </edge>
    <edge function="internal" id=":2731559738_11">
        <lane id=":2731559738_11_0" index="0" length="2.41" shape="241.32,373.57 242.03,372.98 243.49,372.73" speed="27.78" />
    </edge>
    <edge function="internal" id=":2731559738_8">
        <lane allow="bus bicycle" id=":2731559738_8_0" index="0" length="3.00" shape="240.75,371.51 243.49,372.73" speed="27.78" />
    </edge>
    <edge function="internal" id=":2731559738_9">
        <lane allow="bicycle" id=":2731559738_9_0" index="0" length="2.95" shape="240.75,371.51 241.35,372.08 241.81,373.01 242.15,374.04" speed="16.67" width="1.00" />
    </edge>
    <edge function="internal" id=":2731559738_10">
        <lane disallow="tram rail_urban rail rail_electric ship" id=":2731559738_10_0" index="0" length="2.41" shape="240.75,371.51 241.55,372.77 241.59,373.69" speed="27.78" />
    </edge>
    <edge function="internal" id=":2731559738_12">
        <lane id=":2731559738_12_0" index="0" length="0.91" shape="242.15,374.04 242.39,374.92" speed="16.67" width="1.00" />
    </edge>
    <edge function="internal" id=":2731559738_13">
        <lane id=":2731559738_13_0" index="0" length="2.41" shape="241.59,373.69 240.88,374.28 239.41,374.53" speed="27.78" />
    </edge>
    <edge function="internal" id=":2860100544_0">
        <lane disallow="tram rail_urban rail rail_electric ship" id=":2860100544_0_0" index="0" length="7.00" shape="487.25,499.34 487.83,501.25 488.03,503.03 487.87,504.66 487.33,506.14" speed="13.89" />
    </edge>
    <edge function="internal" id=":2860100544_1">
        <lane disallow="tram rail_urban rail rail_electric ship" id=":2860100544_1_0" index="0" length="4.18" shape="484.19,500.57 484.57,501.78 484.73,502.86 484.67,503.81 484.39,504.63" speed="13.89" />
    </edge>
    <edge function="internal" id=":2860100544_2">
        <lane allow="bicycle" id=":2860100544_2_0" index="0" length="5.52" shape="484.19,500.57 484.23,501.35 483.53,501.49 482.07,501.00 479.86,499.88" speed="9.73" width="1.00" />
    </edge>
    <edge function="internal" id=":2860100544_3">
        <lane disallow="tram rail_urban rail rail_electric ship" id=":2860100544_3_0" index="0" length="7.66" shape="480.40,498.91 482.67,500.40 484.09,501.85 484.66,503.26 484.39,504.63" speed="9.73" />
    </edge>
    <edge function="internal" id=":2860100544_4">
        <lane allow="bicycle" id=":2860100544_4_0" index="0" length="1.61" shape="480.40,498.91 480.63,499.36 480.61,499.66 480.36,499.84 479.86,499.88" speed="5.56" width="1.00" />
    </edge>
    <edge function="internal" id=":289644993_0">
        <lane allow="bicycle" id=":289644993_0_0" index="0" length="4.07" shape="455.54,222.32 451.76,220.82" speed="5.56" width="1.00" />
    </edge>
    <edge function="internal" id=":289644993_1">
        <lane allow="bicycle" id=":289644993_1_0" index="0" length="0.18" shape="455.54,222.32 455.44,222.17" speed="5.56" width="1.00" />
    </edge>
    <edge function="internal" id=":289644993_4">
        <lane id=":289644993_4_0" index="0" length="1.42" shape="455.44,222.17 455.26,221.92 455.23,221.61 455.45,221.41 455.94,221.30" speed="5.56" width="1.00" />
    </edge>
    <edge function="internal" id=":289644993_2">
        <lane allow="bicycle" id=":289644993_2_0" index="0" length="4.05" shape="452.17,219.80 455.94,221.30" speed="5.56" width="1.00" />
    </edge>
    <edge function="internal" id=":289644993_3">
        <lane allow="bicycle" id=":289644993_3_0" index="0" length="0.18" shape="452.17,219.80 452.27,219.95" speed="5.56" width="1.00" />
    </edge>
    <edge function="internal" id=":289644993_5">
        <lane id=":289644993_5_0" index="0" length="1.43" shape="452.27,219.95 452.45,220.21 452.48,220.51 452.25,220.72 451.76,220.82" speed="5.56" width="1.00" />
    </edge>
    <edge function="internal" id=":289645022_0">
        <lane allow="bicycle" id=":289645022_0_0" index="0" length="1.61" shape="199.41,117.60 199.13,117.19 199.11,116.89 199.34,116.68 199.83,116.59" speed="5.56" width="1.00" />
    </edge>
    <edge function="internal" id=":291925120_0">
        <lane disallow="tram rail_urban rail rail_electric ship" id=":291925120_0_0" index="0" length="5.99" shape="457.45,216.07 458.92,216.42 460.20,216.16 461.31,215.28 462.24,213.79" speed="20.84" />
    </edge>
    <edge function="internal" id=":291925120_1">
        <lane disallow="tram rail_urban rail rail_electric ship" id=":291925120_1_0" index="0" length="7.38" shape="457.45,216.07 459.57,216.41 461.16,215.85 462.74,215.29 464.86,215.64" speed="27.78" />
        <lane disallow="tram rail_urban rail rail_electric ship" id=":291925120_1_1" index="1" length="7.38" shape="456.17,219.11 458.28,219.44 459.86,218.88 461.44,218.33 463.55,218.67" speed="27.78" />
        <lane disallow="tram rail_urban rail rail_electric ship" id=":291925120_1_2" index="2" length="7.38" shape="456.17,219.11 462.25,221.70" speed="27.78" />
        <lane disallow="tram rail_urban rail rail_electric ship" id=":291925120_1_3" index="3" length="7.38" shape="456.17,219.11 457.87,220.39 458.56,221.92 459.25,223.44 460.95,224.74" speed="27.78" />
    </edge>
    <edge function="internal" id=":291925120_5">
        <lane disallow="tram rail_urban rail rail_electric ship" id=":291925120_5_0" index="0" length="3.58" shape="456.17,219.11 457.43,219.71 458.26,220.29 458.66,220.82 458.63,221.32" speed="20.84" />
    </edge>
    <edge function="internal" id=":291925271_0">
        <lane disallow="tram rail_urban rail rail_electric ship" id=":291925271_0_0" index="0" length="5.08" shape="423.10,321.83 422.85,323.21 423.11,324.31 423.89,325.14 425.19,325.68" speed="13.89" />
    </edge>
    <edge function="internal" id=":291925271_1">
        <lane disallow="tram rail_urban rail rail_electric ship" id=":291925271_1_0" index="0" length="6.40" shape="423.10,321.83 422.49,323.63 422.05,324.85 421.56,326.05 420.80,327.80" speed="13.89" />
    </edge>
    <edge function="internal" id=":291925271_2">
        <lane disallow="tram rail_urban rail rail_electric ship" id=":291925271_2_0" index="0" length="6.40" shape="419.09,323.76 420.87,324.42 422.10,324.84 423.35,325.20 425.19,325.68" speed="13.89" />
    </edge>
    <edge function="internal" id=":291925271_3">
        <lane disallow="tram rail_urban rail rail_electric ship" id=":291925271_3_0" index="0" length="1.59" shape="419.09,323.76 420.32,324.43 420.43,324.58" speed="13.89" />
    </edge>
    <edge function="internal" id=":291925271_4">
        <lane id=":291925271_4_0" index="0" length="3.48" shape="420.43,324.58 421.01,325.33 421.17,326.45 420.80,327.80" speed="13.89" />
    </edge>
    <edge function="internal" id=":291925273_0">
        <lane disallow="tram rail_urban rail rail_electric ship" id=":291925273_0_0" index="0" length="5.95" shape="374.48,441.56 369.18,439.12" speed="27.78" />
        <lane disallow="tram rail_urban rail rail_electric ship" id=":291925273_0_1" index="1" length="5.95" shape="375.91,438.58 370.51,436.10" speed="27.78" />
        <lane disallow="tram rail_urban rail rail_electric ship" id=":291925273_0_2" index="2" length="5.95" shape="377.34,435.61 371.84,433.08" speed="27.78" />
    </edge>
    <edge function="internal" id=":291925273_3">
        <lane allow="bus bicycle" id=":291925273_3_0" index="0" length="2.41" shape="377.34,435.61 376.59,434.33 376.57,433.41" speed="27.78" />
    </edge>
    <edge function="internal" id=":291925273_9">
        <lane id=":291925273_9_0" index="0" length="2.41" shape="376.57,433.41 377.30,432.84 378.77,432.63" speed="27.78" />
    </edge>
    <edge function="internal" id=":291925273_4">
        <lane allow="bus bicycle" id=":291925273_4_0" index="0" length="5.09" shape="377.22,428.36 376.90,429.75 377.05,430.92 377.68,431.89 378.77,432.63" speed="20.84" />
    </edge>
    <edge function="internal" id=":291925273_5">
        <lane disallow="tram rail_urban rail rail_electric ship" id=":291925273_5_0" index="0" length="11.14" shape="377.22,428.36 375.52,432.29 373.83,434.89 372.16,436.16 370.51,436.10" speed="20.84" />
    </edge>
    <edge function="internal" id=":291925273_6">
        <lane disallow="tram rail_urban rail rail_electric ship" id=":291925273_6_0" index="0" length="8.02" shape="377.22,428.36 376.03,430.94 374.74,432.59 373.35,433.30 371.84,433.08" speed="20.84" />
    </edge>
    <edge function="internal" id=":291925273_7">
        <lane allow="bus bicycle" id=":291925273_7_0" index="0" length="6.16" shape="373.18,430.06 378.77,432.63" speed="27.78" />
    </edge>
    <edge function="internal" id=":291925273_8">
        <lane disallow="tram rail_urban rail rail_electric ship" id=":291925273_8_0" index="0" length="2.41" shape="373.18,430.06 373.98,431.32 374.02,432.24" speed="27.78" />
    </edge>
    <edge function="internal" id=":291925273_10">
        <lane id=":291925273_10_0" index="0" length="2.41" shape="374.02,432.24 373.31,432.83 371.84,433.08" speed="27.78" />
    </edge>
    <edge function="internal" id=":3063500535_0">
        <lane disallow="tram rail_urban rail rail_electric ship" id=":3063500535_0_0" index="0" length="4.12" shape="460.76,224.33 459.38,223.91 458.30,223.83 457.50,224.07 457.00,224.64" speed="9.73" />
    </edge>
    <edge function="internal" id=":3063500535_1">
        <lane allow="bicycle" id=":3063500535_1_0" index="0" length="5.39" shape="460.76,224.33 455.73,222.40" speed="5.56" width="1.00" />
    </edge>
    <edge function="internal" id=":3063500535_2">
        <lane allow="bicycle" id=":3063500535_2_0" index="0" length="1.61" shape="460.76,224.33 460.47,223.93 460.44,223.62 460.67,223.42 461.15,223.31" speed="5.56" width="1.00" />
    </edge>
    <edge function="internal" id=":3063500535_3">
        <lane allow="bicycle" id=":3063500535_3_0" index="0" length="3.43" shape="458.54,221.50 458.63,222.11 459.33,222.60 460.29,223.00 461.15,223.31" speed="9.73" width="1.00" />
    </edge>
    <edge function="internal" id=":3063500535_4">